<routes>
	<trip id="route_E1_A1" depart="0" from="1194747955" to="1333532316" />
	<trip id="route_E1_A2" depart="0" from="1194747955" to="1354687747" />
	<trip id="route_E1_A3" depart="0" from="1194747955" to="7377781" />
	<trip id="route_E1_A4" depart="0" from="1194747955" to="6595423" />
	<trip id="route_E1_A5" depart="0" from="1194747955" to="7376559" />
	<trip id="route_E1_A6" depart="0" from="1194747955" to="1275364470" />
	<trip id="route_E1_A7" depart="0" from="1194747955" to="1235069475" />
	<trip id="route_E1_A8" depart="0" from="1194747955" to="1288018762" />
	<trip id="route_E1_A9" depart="0" from="1194747955" to="495535095" />
	<trip id="route_E1_A10" depart="0" from="1194747955" to="7043826" />
	<trip id="route_E1_A11" depart="0" from="1194747955" to="33912477" />
	<trip id="route_E1_A12" depart="0" from="1194747955" to="761458302" />
	<trip id="route_E1_A13" depart="0" from="1194747955" to="7047894" />
	<trip id="route_E1_A14" depart="0" from="1194747955" to="495531783" />
	<trip id="route_E1_A15" depart="0" from="1194747955" to="386870322" />
	<trip id="route_E1_A16" depart="0" from="1194747955" to="1147953415" />
	<trip id="route_E1_A17" depart="0" from="1194747955" to="1190841568" />
	<trip id="route_E1_A18" depart="0" from="1194747955" to="1270860757" />
	<trip id="route_E1_A19" depart="0" from="1194747955" to="7382923" />
	<trip id="route_E1_A20" depart="0" from="1194747955" to="442727421#0" />
	<trip id="route_E1_A21" depart="0" from="1194747955" to="1265248684" />
	<trip id="route_E1_A22" depart="0" from="1194747955" to="817918979" />
	<trip id="route_E2_A1" depart="0" from="491590645" to="1333532316" />
	<trip id="route_E2_A2" depart="0" from="491590645" to="1354687747" />
	<trip id="route_E2_A3" depart="0" from="491590645" to="7377781" />
	<trip id="route_E2_A4" depart="0" from="491590645" to="6595423" />
	<trip id="route_E2_A5" depart="0" from="491590645" to="7376559" />
	<trip id="route_E2_A6" depart="0" from="491590645" to="1275364470" />
	<trip id="route_E2_A7" depart="0" from="491590645" to="1235069475" />
	<trip id="route_E2_A8" depart="0" from="491590645" to="1288018762" />
	<trip id="route_E2_A9" depart="0" from="491590645" to="495535095" />
	<trip id="route_E2_A10" depart="0" from="491590645" to="7043826" />
	<trip id="route_E2_A11" depart="0" from="491590645" to="33912477" />
	<trip id="route_E2_A12" depart="0" from="491590645" to="761458302" />
	<trip id="route_E2_A13" depart="0" from="491590645" to="7047894" />
	<trip id="route_E2_A14" depart="0" from="491590645" to="495531783" />
	<trip id="route_E2_A15" depart="0" from="491590645" to="386870322" />
	<trip id="route_E2_A16" depart="0" from="491590645" to="1147953415" />
	<trip id="route_E2_A17" depart="0" from="491590645" to="1190841568" />
	<trip id="route_E2_A18" depart="0" from="491590645" to="1270860757" />
	<trip id="route_E2_A19" depart="0" from="491590645" to="7382923" />
	<trip id="route_E2_A20" depart="0" from="491590645" to="442727421#0" />
	<trip id="route_E2_A21" depart="0" from="491590645" to="1265248684" />
	<trip id="route_E2_A22" depart="0" from="491590645" to="817918979" />
	<trip id="route_E3_A1" depart="0" from="139186363" to="1333532316" />
	<trip id="route_E3_A2" depart="0" from="139186363" to="1354687747" />
	<trip id="route_E3_A3" depart="0" from="139186363" to="7377781" />
	<trip id="route_E3_A4" depart="0" from="139186363" to="6595423" />
	<trip id="route_E3_A5" depart="0" from="139186363" to="7376559" />
	<trip id="route_E3_A6" depart="0" from="139186363" to="1275364470" />
	<trip id="route_E3_A7" depart="0" from="139186363" to="1235069475" />
	<trip id="route_E3_A8" depart="0" from="139186363" to="1288018762" />
	<trip id="route_E3_A9" depart="0" from="139186363" to="495535095" />
	<trip id="route_E3_A10" depart="0" from="139186363" to="7043826" />
	<trip id="route_E3_A11" depart="0" from="139186363" to="33912477" />
	<trip id="route_E3_A12" depart="0" from="139186363" to="761458302" />
	<trip id="route_E3_A13" depart="0" from="139186363" to="7047894" />
	<trip id="route_E3_A14" depart="0" from="139186363" to="495531783" />
	<trip id="route_E3_A15" depart="0" from="139186363" to="386870322" />
	<trip id="route_E3_A16" depart="0" from="139186363" to="1147953415" />
	<trip id="route_E3_A17" depart="0" from="139186363" to="1190841568" />
	<trip id="route_E3_A18" depart="0" from="139186363" to="1270860757" />
	<trip id="route_E3_A19" depart="0" from="139186363" to="7382923" />
	<trip id="route_E3_A20" depart="0" from="139186363" to="442727421#0" />
	<trip id="route_E3_A21" depart="0" from="139186363" to="1265248684" />
	<trip id="route_E3_A22" depart="0" from="139186363" to="817918979" />
	<trip id="route_E4_A1" depart="0" from="7377857#0" to="1333532316" />
	<trip id="route_E4_A2" depart="0" from="7377857#0" to="1354687747" />
	<trip id="route_E4_A3" depart="0" from="7377857#0" to="7377781" />
	<trip id="route_E4_A4" depart="0" from="7377857#0" to="6595423" />
	<trip id="route_E4_A5" depart="0" from="7377857#0" to="7376559" />
	<trip id="route_E4_A6" depart="0" from="7377857#0" to="1275364470" />
	<trip id="route_E4_A7" depart="0" from="7377857#0" to="1235069475" />
	<trip id="route_E4_A8" depart="0" from="7377857#0" to="1288018762" />
	<trip id="route_E4_A9" depart="0" from="7377857#0" to="495535095" />
	<trip id="route_E4_A10" depart="0" from="7377857#0" to="7043826" />
	<trip id="route_E4_A11" depart="0" from="7377857#0" to="33912477" />
	<trip id="route_E4_A12" depart="0" from="7377857#0" to="761458302" />
	<trip id="route_E4_A13" depart="0" from="7377857#0" to="7047894" />
	<trip id="route_E4_A14" depart="0" from="7377857#0" to="495531783" />
	<trip id="route_E4_A15" depart="0" from="7377857#0" to="386870322" />
	<trip id="route_E4_A16" depart="0" from="7377857#0" to="1147953415" />
	<trip id="route_E4_A17" depart="0" from="7377857#0" to="1190841568" />
	<trip id="route_E4_A18" depart="0" from="7377857#0" to="1270860757" />
	<trip id="route_E4_A19" depart="0" from="7377857#0" to="7382923" />
	<trip id="route_E4_A20" depart="0" from="7377857#0" to="442727421#0" />
	<trip id="route_E4_A21" depart="0" from="7377857#0" to="1265248684" />
	<trip id="route_E4_A22" depart="0" from="7377857#0" to="817918979" />
	<trip id="route_E5_A1" depart="0" from="7376540#0" to="1333532316" />
	<trip id="route_E5_A2" depart="0" from="7376540#0" to="1354687747" />
	<trip id="route_E5_A3" depart="0" from="7376540#0" to="7377781" />
	<trip id="route_E5_A4" depart="0" from="7376540#0" to="6595423" />
	<trip id="route_E5_A5" depart="0" from="7376540#0" to="7376559" />
	<trip id="route_E5_A6" depart="0" from="7376540#0" to="1275364470" />
	<trip id="route_E5_A7" depart="0" from="7376540#0" to="1235069475" />
	<trip id="route_E5_A8" depart="0" from="7376540#0" to="1288018762" />
	<trip id="route_E5_A9" depart="0" from="7376540#0" to="495535095" />
	<trip id="route_E5_A10" depart="0" from="7376540#0" to="7043826" />
	<trip id="route_E5_A11" depart="0" from="7376540#0" to="33912477" />
	<trip id="route_E5_A12" depart="0" from="7376540#0" to="761458302" />
	<trip id="route_E5_A13" depart="0" from="7376540#0" to="7047894" />
	<trip id="route_E5_A14" depart="0" from="7376540#0" to="495531783" />
	<trip id="route_E5_A15" depart="0" from="7376540#0" to="386870322" />
	<trip id="route_E5_A16" depart="0" from="7376540#0" to="1147953415" />
	<trip id="route_E5_A17" depart="0" from="7376540#0" to="1190841568" />
	<trip id="route_E5_A18" depart="0" from="7376540#0" to="1270860757" />
	<trip id="route_E5_A19" depart="0" from="7376540#0" to="7382923" />
	<trip id="route_E5_A20" depart="0" from="7376540#0" to="442727421#0" />
	<trip id="route_E5_A21" depart="0" from="7376540#0" to="1265248684" />
	<trip id="route_E5_A22" depart="0" from="7376540#0" to="817918979" />
	<trip id="route_E6_A1" depart="0" from="1275377250" to="1333532316" />
	<trip id="route_E6_A2" depart="0" from="1275377250" to="1354687747" />
	<trip id="route_E6_A3" depart="0" from="1275377250" to="7377781" />
	<trip id="route_E6_A4" depart="0" from="1275377250" to="6595423" />
	<trip id="route_E6_A5" depart="0" from="1275377250" to="7376559" />
	<trip id="route_E6_A6" depart="0" from="1275377250" to="1275364470" />
	<trip id="route_E6_A7" depart="0" from="1275377250" to="1235069475" />
	<trip id="route_E6_A8" depart="0" from="1275377250" to="1288018762" />
	<trip id="route_E6_A9" depart="0" from="1275377250" to="495535095" />
	<trip id="route_E6_A10" depart="0" from="1275377250" to="7043826" />
	<trip id="route_E6_A11" depart="0" from="1275377250" to="33912477" />
	<trip id="route_E6_A12" depart="0" from="1275377250" to="761458302" />
	<trip id="route_E6_A13" depart="0" from="1275377250" to="7047894" />
	<trip id="route_E6_A14" depart="0" from="1275377250" to="495531783" />
	<trip id="route_E6_A15" depart="0" from="1275377250" to="386870322" />
	<trip id="route_E6_A16" depart="0" from="1275377250" to="1147953415" />
	<trip id="route_E6_A17" depart="0" from="1275377250" to="1190841568" />
	<trip id="route_E6_A18" depart="0" from="1275377250" to="1270860757" />
	<trip id="route_E6_A19" depart="0" from="1275377250" to="7382923" />
	<trip id="route_E6_A20" depart="0" from="1275377250" to="442727421#0" />
	<trip id="route_E6_A21" depart="0" from="1275377250" to="1265248684" />
	<trip id="route_E6_A22" depart="0" from="1275377250" to="817918979" />
	<trip id="route_E7_A1" depart="0" from="7040871#0-AddedOnRampEdge" to="1333532316" />
	<trip id="route_E7_A2" depart="0" from="7040871#0-AddedOnRampEdge" to="1354687747" />
	<trip id="route_E7_A3" depart="0" from="7040871#0-AddedOnRampEdge" to="7377781" />
	<trip id="route_E7_A4" depart="0" from="7040871#0-AddedOnRampEdge" to="6595423" />
	<trip id="route_E7_A5" depart="0" from="7040871#0-AddedOnRampEdge" to="7376559" />
	<trip id="route_E7_A6" depart="0" from="7040871#0-AddedOnRampEdge" to="1275364470" />
	<trip id="route_E7_A7" depart="0" from="7040871#0-AddedOnRampEdge" to="1235069475" />
	<trip id="route_E7_A8" depart="0" from="7040871#0-AddedOnRampEdge" to="1288018762" />
	<trip id="route_E7_A9" depart="0" from="7040871#0-AddedOnRampEdge" to="495535095" />
	<trip id="route_E7_A10" depart="0" from="7040871#0-AddedOnRampEdge" to="7043826" />
	<trip id="route_E7_A11" depart="0" from="7040871#0-AddedOnRampEdge" to="33912477" />
	<trip id="route_E7_A12" depart="0" from="7040871#0-AddedOnRampEdge" to="761458302" />
	<trip id="route_E7_A13" depart="0" from="7040871#0-AddedOnRampEdge" to="7047894" />
	<trip id="route_E7_A14" depart="0" from="7040871#0-AddedOnRampEdge" to="495531783" />
	<trip id="route_E7_A15" depart="0" from="7040871#0-AddedOnRampEdge" to="386870322" />
	<trip id="route_E7_A16" depart="0" from="7040871#0-AddedOnRampEdge" to="1147953415" />
	<trip id="route_E7_A17" depart="0" from="7040871#0-AddedOnRampEdge" to="1190841568" />
	<trip id="route_E7_A18" depart="0" from="7040871#0-AddedOnRampEdge" to="1270860757" />
	<trip id="route_E7_A19" depart="0" from="7040871#0-AddedOnRampEdge" to="7382923" />
	<trip id="route_E7_A20" depart="0" from="7040871#0-AddedOnRampEdge" to="442727421#0" />
	<trip id="route_E7_A21" depart="0" from="7040871#0-AddedOnRampEdge" to="1265248684" />
	<trip id="route_E7_A22" depart="0" from="7040871#0-AddedOnRampEdge" to="817918979" />
	<trip id="route_E8_A1" depart="0" from="328331705#0" to="1333532316" />
	<trip id="route_E8_A2" depart="0" from="328331705#0" to="1354687747" />
	<trip id="route_E8_A3" depart="0" from="328331705#0" to="7377781" />
	<trip id="route_E8_A4" depart="0" from="328331705#0" to="6595423" />
	<trip id="route_E8_A5" depart="0" from="328331705#0" to="7376559" />
	<trip id="route_E8_A6" depart="0" from="328331705#0" to="1275364470" />
	<trip id="route_E8_A7" depart="0" from="328331705#0" to="1235069475" />
	<trip id="route_E8_A8" depart="0" from="328331705#0" to="1288018762" />
	<trip id="route_E8_A9" depart="0" from="328331705#0" to="495535095" />
	<trip id="route_E8_A10" depart="0" from="328331705#0" to="7043826" />
	<trip id="route_E8_A11" depart="0" from="328331705#0" to="33912477" />
	<trip id="route_E8_A12" depart="0" from="328331705#0" to="761458302" />
	<trip id="route_E8_A13" depart="0" from="328331705#0" to="7047894" />
	<trip id="route_E8_A14" depart="0" from="328331705#0" to="495531783" />
	<trip id="route_E8_A15" depart="0" from="328331705#0" to="386870322" />
	<trip id="route_E8_A16" depart="0" from="328331705#0" to="1147953415" />
	<trip id="route_E8_A17" depart="0" from="328331705#0" to="1190841568" />
	<trip id="route_E8_A18" depart="0" from="328331705#0" to="1270860757" />
	<trip id="route_E8_A19" depart="0" from="328331705#0" to="7382923" />
	<trip id="route_E8_A20" depart="0" from="328331705#0" to="442727421#0" />
	<trip id="route_E8_A21" depart="0" from="328331705#0" to="1265248684" />
	<trip id="route_E8_A22" depart="0" from="328331705#0" to="817918979" />
	<trip id="route_E9_A1" depart="0" from="378604462" to="1333532316" />
	<trip id="route_E9_A2" depart="0" from="378604462" to="1354687747" />
	<trip id="route_E9_A3" depart="0" from="378604462" to="7377781" />
	<trip id="route_E9_A4" depart="0" from="378604462" to="6595423" />
	<trip id="route_E9_A5" depart="0" from="378604462" to="7376559" />
	<trip id="route_E9_A6" depart="0" from="378604462" to="1275364470" />
	<trip id="route_E9_A7" depart="0" from="378604462" to="1235069475" />
	<trip id="route_E9_A8" depart="0" from="378604462" to="1288018762" />
	<trip id="route_E9_A9" depart="0" from="378604462" to="495535095" />
	<trip id="route_E9_A10" depart="0" from="378604462" to="7043826" />
	<trip id="route_E9_A11" depart="0" from="378604462" to="33912477" />
	<trip id="route_E9_A12" depart="0" from="378604462" to="761458302" />
	<trip id="route_E9_A13" depart="0" from="378604462" to="7047894" />
	<trip id="route_E9_A14" depart="0" from="378604462" to="495531783" />
	<trip id="route_E9_A15" depart="0" from="378604462" to="386870322" />
	<trip id="route_E9_A16" depart="0" from="378604462" to="1147953415" />
	<trip id="route_E9_A17" depart="0" from="378604462" to="1190841568" />
	<trip id="route_E9_A18" depart="0" from="378604462" to="1270860757" />
	<trip id="route_E9_A19" depart="0" from="378604462" to="7382923" />
	<trip id="route_E9_A20" depart="0" from="378604462" to="442727421#0" />
	<trip id="route_E9_A21" depart="0" from="378604462" to="1265248684" />
	<trip id="route_E9_A22" depart="0" from="378604462" to="817918979" />
	<trip id="route_E10_A1" depart="0" from="319644368#0" to="1333532316" />
	<trip id="route_E10_A2" depart="0" from="319644368#0" to="1354687747" />
	<trip id="route_E10_A3" depart="0" from="319644368#0" to="7377781" />
	<trip id="route_E10_A4" depart="0" from="319644368#0" to="6595423" />
	<trip id="route_E10_A5" depart="0" from="319644368#0" to="7376559" />
	<trip id="route_E10_A6" depart="0" from="319644368#0" to="1275364470" />
	<trip id="route_E10_A7" depart="0" from="319644368#0" to="1235069475" />
	<trip id="route_E10_A8" depart="0" from="319644368#0" to="1288018762" />
	<trip id="route_E10_A9" depart="0" from="319644368#0" to="495535095" />
	<trip id="route_E10_A10" depart="0" from="319644368#0" to="7043826" />
	<trip id="route_E10_A11" depart="0" from="319644368#0" to="33912477" />
	<trip id="route_E10_A12" depart="0" from="319644368#0" to="761458302" />
	<trip id="route_E10_A13" depart="0" from="319644368#0" to="7047894" />
	<trip id="route_E10_A14" depart="0" from="319644368#0" to="495531783" />
	<trip id="route_E10_A15" depart="0" from="319644368#0" to="386870322" />
	<trip id="route_E10_A16" depart="0" from="319644368#0" to="1147953415" />
	<trip id="route_E10_A17" depart="0" from="319644368#0" to="1190841568" />
	<trip id="route_E10_A18" depart="0" from="319644368#0" to="1270860757" />
	<trip id="route_E10_A19" depart="0" from="319644368#0" to="7382923" />
	<trip id="route_E10_A20" depart="0" from="319644368#0" to="442727421#0" />
	<trip id="route_E10_A21" depart="0" from="319644368#0" to="1265248684" />
	<trip id="route_E10_A22" depart="0" from="319644368#0" to="817918979" />
	<trip id="route_E11_A1" depart="0" from="80952024" to="1333532316" />
	<trip id="route_E11_A2" depart="0" from="80952024" to="1354687747" />
	<trip id="route_E11_A3" depart="0" from="80952024" to="7377781" />
	<trip id="route_E11_A4" depart="0" from="80952024" to="6595423" />
	<trip id="route_E11_A5" depart="0" from="80952024" to="7376559" />
	<trip id="route_E11_A6" depart="0" from="80952024" to="1275364470" />
	<trip id="route_E11_A7" depart="0" from="80952024" to="1235069475" />
	<trip id="route_E11_A8" depart="0" from="80952024" to="1288018762" />
	<trip id="route_E11_A9" depart="0" from="80952024" to="495535095" />
	<trip id="route_E11_A10" depart="0" from="80952024" to="7043826" />
	<trip id="route_E11_A11" depart="0" from="80952024" to="33912477" />
	<trip id="route_E11_A12" depart="0" from="80952024" to="761458302" />
	<trip id="route_E11_A13" depart="0" from="80952024" to="7047894" />
	<trip id="route_E11_A14" depart="0" from="80952024" to="495531783" />
	<trip id="route_E11_A15" depart="0" from="80952024" to="386870322" />
	<trip id="route_E11_A16" depart="0" from="80952024" to="1147953415" />
	<trip id="route_E11_A17" depart="0" from="80952024" to="1190841568" />
	<trip id="route_E11_A18" depart="0" from="80952024" to="1270860757" />
	<trip id="route_E11_A19" depart="0" from="80952024" to="7382923" />
	<trip id="route_E11_A20" depart="0" from="80952024" to="442727421#0" />
	<trip id="route_E11_A21" depart="0" from="80952024" to="1265248684" />
	<trip id="route_E11_A22" depart="0" from="80952024" to="817918979" />
	<trip id="route_E12_A1" depart="0" from="7047903" to="1333532316" />
	<trip id="route_E12_A2" depart="0" from="7047903" to="1354687747" />
	<trip id="route_E12_A3" depart="0" from="7047903" to="7377781" />
	<trip id="route_E12_A4" depart="0" from="7047903" to="6595423" />
	<trip id="route_E12_A5" depart="0" from="7047903" to="7376559" />
	<trip id="route_E12_A6" depart="0" from="7047903" to="1275364470" />
	<trip id="route_E12_A7" depart="0" from="7047903" to="1235069475" />
	<trip id="route_E12_A8" depart="0" from="7047903" to="1288018762" />
	<trip id="route_E12_A9" depart="0" from="7047903" to="495535095" />
	<trip id="route_E12_A10" depart="0" from="7047903" to="7043826" />
	<trip id="route_E12_A11" depart="0" from="7047903" to="33912477" />
	<trip id="route_E12_A12" depart="0" from="7047903" to="761458302" />
	<trip id="route_E12_A13" depart="0" from="7047903" to="7047894" />
	<trip id="route_E12_A14" depart="0" from="7047903" to="495531783" />
	<trip id="route_E12_A15" depart="0" from="7047903" to="386870322" />
	<trip id="route_E12_A16" depart="0" from="7047903" to="1147953415" />
	<trip id="route_E12_A17" depart="0" from="7047903" to="1190841568" />
	<trip id="route_E12_A18" depart="0" from="7047903" to="1270860757" />
	<trip id="route_E12_A19" depart="0" from="7047903" to="7382923" />
	<trip id="route_E12_A20" depart="0" from="7047903" to="442727421#0" />
	<trip id="route_E12_A21" depart="0" from="7047903" to="1265248684" />
	<trip id="route_E12_A22" depart="0" from="7047903" to="817918979" />
	<trip id="route_E13_A1" depart="0" from="495531782" to="1333532316" />
	<trip id="route_E13_A2" depart="0" from="495531782" to="1354687747" />
	<trip id="route_E13_A3" depart="0" from="495531782" to="7377781" />
	<trip id="route_E13_A4" depart="0" from="495531782" to="6595423" />
	<trip id="route_E13_A5" depart="0" from="495531782" to="7376559" />
	<trip id="route_E13_A6" depart="0" from="495531782" to="1275364470" />
	<trip id="route_E13_A7" depart="0" from="495531782" to="1235069475" />
	<trip id="route_E13_A8" depart="0" from="495531782" to="1288018762" />
	<trip id="route_E13_A9" depart="0" from="495531782" to="495535095" />
	<trip id="route_E13_A10" depart="0" from="495531782" to="7043826" />
	<trip id="route_E13_A11" depart="0" from="495531782" to="33912477" />
	<trip id="route_E13_A12" depart="0" from="495531782" to="761458302" />
	<trip id="route_E13_A13" depart="0" from="495531782" to="7047894" />
	<trip id="route_E13_A14" depart="0" from="495531782" to="495531783" />
	<trip id="route_E13_A15" depart="0" from="495531782" to="386870322" />
	<trip id="route_E13_A16" depart="0" from="495531782" to="1147953415" />
	<trip id="route_E13_A17" depart="0" from="495531782" to="1190841568" />
	<trip id="route_E13_A18" depart="0" from="495531782" to="1270860757" />
	<trip id="route_E13_A19" depart="0" from="495531782" to="7382923" />
	<trip id="route_E13_A20" depart="0" from="495531782" to="442727421#0" />
	<trip id="route_E13_A21" depart="0" from="495531782" to="1265248684" />
	<trip id="route_E13_A22" depart="0" from="495531782" to="817918979" />
	<trip id="route_E14_A1" depart="0" from="175657333" to="1333532316" />
	<trip id="route_E14_A2" depart="0" from="175657333" to="1354687747" />
	<trip id="route_E14_A3" depart="0" from="175657333" to="7377781" />
	<trip id="route_E14_A4" depart="0" from="175657333" to="6595423" />
	<trip id="route_E14_A5" depart="0" from="175657333" to="7376559" />
	<trip id="route_E14_A6" depart="0" from="175657333" to="1275364470" />
	<trip id="route_E14_A7" depart="0" from="175657333" to="1235069475" />
	<trip id="route_E14_A8" depart="0" from="175657333" to="1288018762" />
	<trip id="route_E14_A9" depart="0" from="175657333" to="495535095" />
	<trip id="route_E14_A10" depart="0" from="175657333" to="7043826" />
	<trip id="route_E14_A11" depart="0" from="175657333" to="33912477" />
	<trip id="route_E14_A12" depart="0" from="175657333" to="761458302" />
	<trip id="route_E14_A13" depart="0" from="175657333" to="7047894" />
	<trip id="route_E14_A14" depart="0" from="175657333" to="495531783" />
	<trip id="route_E14_A15" depart="0" from="175657333" to="386870322" />
	<trip id="route_E14_A16" depart="0" from="175657333" to="1147953415" />
	<trip id="route_E14_A17" depart="0" from="175657333" to="1190841568" />
	<trip id="route_E14_A18" depart="0" from="175657333" to="1270860757" />
	<trip id="route_E14_A19" depart="0" from="175657333" to="7382923" />
	<trip id="route_E14_A20" depart="0" from="175657333" to="442727421#0" />
	<trip id="route_E14_A21" depart="0" from="175657333" to="1265248684" />
	<trip id="route_E14_A22" depart="0" from="175657333" to="817918979" />
	<trip id="route_E15_A1" depart="0" from="1147953417" to="1333532316" />
	<trip id="route_E15_A2" depart="0" from="1147953417" to="1354687747" />
	<trip id="route_E15_A3" depart="0" from="1147953417" to="7377781" />
	<trip id="route_E15_A4" depart="0" from="1147953417" to="6595423" />
	<trip id="route_E15_A5" depart="0" from="1147953417" to="7376559" />
	<trip id="route_E15_A6" depart="0" from="1147953417" to="1275364470" />
	<trip id="route_E15_A7" depart="0" from="1147953417" to="1235069475" />
	<trip id="route_E15_A8" depart="0" from="1147953417" to="1288018762" />
	<trip id="route_E15_A9" depart="0" from="1147953417" to="495535095" />
	<trip id="route_E15_A10" depart="0" from="1147953417" to="7043826" />
	<trip id="route_E15_A11" depart="0" from="1147953417" to="33912477" />
	<trip id="route_E15_A12" depart="0" from="1147953417" to="761458302" />
	<trip id="route_E15_A13" depart="0" from="1147953417" to="7047894" />
	<trip id="route_E15_A14" depart="0" from="1147953417" to="495531783" />
	<trip id="route_E15_A15" depart="0" from="1147953417" to="386870322" />
	<trip id="route_E15_A16" depart="0" from="1147953417" to="1147953415" />
	<trip id="route_E15_A17" depart="0" from="1147953417" to="1190841568" />
	<trip id="route_E15_A18" depart="0" from="1147953417" to="1270860757" />
	<trip id="route_E15_A19" depart="0" from="1147953417" to="7382923" />
	<trip id="route_E15_A20" depart="0" from="1147953417" to="442727421#0" />
	<trip id="route_E15_A21" depart="0" from="1147953417" to="1265248684" />
	<trip id="route_E15_A22" depart="0" from="1147953417" to="817918979" />
	<trip id="route_E16_A1" depart="0" from="822598790" to="1333532316" />
	<trip id="route_E16_A2" depart="0" from="822598790" to="1354687747" />
	<trip id="route_E16_A3" depart="0" from="822598790" to="7377781" />
	<trip id="route_E16_A4" depart="0" from="822598790" to="6595423" />
	<trip id="route_E16_A5" depart="0" from="822598790" to="7376559" />
	<trip id="route_E16_A6" depart="0" from="822598790" to="1275364470" />
	<trip id="route_E16_A7" depart="0" from="822598790" to="1235069475" />
	<trip id="route_E16_A8" depart="0" from="822598790" to="1288018762" />
	<trip id="route_E16_A9" depart="0" from="822598790" to="495535095" />
	<trip id="route_E16_A10" depart="0" from="822598790" to="7043826" />
	<trip id="route_E16_A11" depart="0" from="822598790" to="33912477" />
	<trip id="route_E16_A12" depart="0" from="822598790" to="761458302" />
	<trip id="route_E16_A13" depart="0" from="822598790" to="7047894" />
	<trip id="route_E16_A14" depart="0" from="822598790" to="495531783" />
	<trip id="route_E16_A15" depart="0" from="822598790" to="386870322" />
	<trip id="route_E16_A16" depart="0" from="822598790" to="1147953415" />
	<trip id="route_E16_A17" depart="0" from="822598790" to="1190841568" />
	<trip id="route_E16_A18" depart="0" from="822598790" to="1270860757" />
	<trip id="route_E16_A19" depart="0" from="822598790" to="7382923" />
	<trip id="route_E16_A20" depart="0" from="822598790" to="442727421#0" />
	<trip id="route_E16_A21" depart="0" from="822598790" to="1265248684" />
	<trip id="route_E16_A22" depart="0" from="822598790" to="817918979" />
	<trip id="route_E17_A1" depart="0" from="706997158" to="1333532316" />
	<trip id="route_E17_A2" depart="0" from="706997158" to="1354687747" />
	<trip id="route_E17_A3" depart="0" from="706997158" to="7377781" />
	<trip id="route_E17_A4" depart="0" from="706997158" to="6595423" />
	<trip id="route_E17_A5" depart="0" from="706997158" to="7376559" />
	<trip id="route_E17_A6" depart="0" from="706997158" to="1275364470" />
	<trip id="route_E17_A7" depart="0" from="706997158" to="1235069475" />
	<trip id="route_E17_A8" depart="0" from="706997158" to="1288018762" />
	<trip id="route_E17_A9" depart="0" from="706997158" to="495535095" />
	<trip id="route_E17_A10" depart="0" from="706997158" to="7043826" />
	<trip id="route_E17_A11" depart="0" from="706997158" to="33912477" />
	<trip id="route_E17_A12" depart="0" from="706997158" to="761458302" />
	<trip id="route_E17_A13" depart="0" from="706997158" to="7047894" />
	<trip id="route_E17_A14" depart="0" from="706997158" to="495531783" />
	<trip id="route_E17_A15" depart="0" from="706997158" to="386870322" />
	<trip id="route_E17_A16" depart="0" from="706997158" to="1147953415" />
	<trip id="route_E17_A17" depart="0" from="706997158" to="1190841568" />
	<trip id="route_E17_A18" depart="0" from="706997158" to="1270860757" />
	<trip id="route_E17_A19" depart="0" from="706997158" to="7382923" />
	<trip id="route_E17_A20" depart="0" from="706997158" to="442727421#0" />
	<trip id="route_E17_A21" depart="0" from="706997158" to="1265248684" />
	<trip id="route_E17_A22" depart="0" from="706997158" to="817918979" />
	<trip id="route_E18_A1" depart="0" from="7382949" to="1333532316" />
	<trip id="route_E18_A2" depart="0" from="7382949" to="1354687747" />
	<trip id="route_E18_A3" depart="0" from="7382949" to="7377781" />
	<trip id="route_E18_A4" depart="0" from="7382949" to="6595423" />
	<trip id="route_E18_A5" depart="0" from="7382949" to="7376559" />
	<trip id="route_E18_A6" depart="0" from="7382949" to="1275364470" />
	<trip id="route_E18_A7" depart="0" from="7382949" to="1235069475" />
	<trip id="route_E18_A8" depart="0" from="7382949" to="1288018762" />
	<trip id="route_E18_A9" depart="0" from="7382949" to="495535095" />
	<trip id="route_E18_A10" depart="0" from="7382949" to="7043826" />
	<trip id="route_E18_A11" depart="0" from="7382949" to="33912477" />
	<trip id="route_E18_A12" depart="0" from="7382949" to="761458302" />
	<trip id="route_E18_A13" depart="0" from="7382949" to="7047894" />
	<trip id="route_E18_A14" depart="0" from="7382949" to="495531783" />
	<trip id="route_E18_A15" depart="0" from="7382949" to="386870322" />
	<trip id="route_E18_A16" depart="0" from="7382949" to="1147953415" />
	<trip id="route_E18_A17" depart="0" from="7382949" to="1190841568" />
	<trip id="route_E18_A18" depart="0" from="7382949" to="1270860757" />
	<trip id="route_E18_A19" depart="0" from="7382949" to="7382923" />
	<trip id="route_E18_A20" depart="0" from="7382949" to="442727421#0" />
	<trip id="route_E18_A21" depart="0" from="7382949" to="1265248684" />
	<trip id="route_E18_A22" depart="0" from="7382949" to="817918979" />
	<trip id="route_E19_A1" depart="0" from="7382616#1" to="1333532316" />
	<trip id="route_E19_A2" depart="0" from="7382616#1" to="1354687747" />
	<trip id="route_E19_A3" depart="0" from="7382616#1" to="7377781" />
	<trip id="route_E19_A4" depart="0" from="7382616#1" to="6595423" />
	<trip id="route_E19_A5" depart="0" from="7382616#1" to="7376559" />
	<trip id="route_E19_A6" depart="0" from="7382616#1" to="1275364470" />
	<trip id="route_E19_A7" depart="0" from="7382616#1" to="1235069475" />
	<trip id="route_E19_A8" depart="0" from="7382616#1" to="1288018762" />
	<trip id="route_E19_A9" depart="0" from="7382616#1" to="495535095" />
	<trip id="route_E19_A10" depart="0" from="7382616#1" to="7043826" />
	<trip id="route_E19_A11" depart="0" from="7382616#1" to="33912477" />
	<trip id="route_E19_A12" depart="0" from="7382616#1" to="761458302" />
	<trip id="route_E19_A13" depart="0" from="7382616#1" to="7047894" />
	<trip id="route_E19_A14" depart="0" from="7382616#1" to="495531783" />
	<trip id="route_E19_A15" depart="0" from="7382616#1" to="386870322" />
	<trip id="route_E19_A16" depart="0" from="7382616#1" to="1147953415" />
	<trip id="route_E19_A17" depart="0" from="7382616#1" to="1190841568" />
	<trip id="route_E19_A18" depart="0" from="7382616#1" to="1270860757" />
	<trip id="route_E19_A19" depart="0" from="7382616#1" to="7382923" />
	<trip id="route_E19_A20" depart="0" from="7382616#1" to="442727421#0" />