<?xml version="1.0" encoding="UTF-8"?>

<!-- generated on 2025-04-29 20:53:26 by Eclipse SUMO duarouter Version 1.19.0
<configuration xmlns:xsi="http://www.w3.org/2001/XMLSchema-instance" xsi:noNamespaceSchemaLocation="http://sumo.dlr.de/xsd/duarouterConfiguration.xsd">

    <input>
        <net-file value="osm_reduced_kevin.net.xml"/>
        <route-files value="5_Routes.xml"/>
    </input>

    <output>
        <output-file value="6_duarouter_trips.xml"/>
    </output>

</configuration>
-->

<routes xmlns:xsi="http://www.w3.org/2001/XMLSchema-instance" xsi:noNamespaceSchemaLocation="http://sumo.dlr.de/xsd/routes_file.xsd">
    <vehicle id="route_E1_A1" depart="0.00">
        <route edges="1194747955 1194747954 440995086 1194747958 128965109 254282339 254282340#1 385736146 1354687748 221205615 491590643#0 1331091275 221205616#0 221205616#1 221205616#2 679563339 679563336 39911408#0 39911408#1 254282341 1331091279 7377811 7377791 1093958473 7377853 7376769 1093958036 495537084 7376543 7376553 7042478 7042483 495536678 7042488 1093957498 38524672 495536350 7040861#0 722735725#0 722735725#1 7040879#0 866749029#1 495536083 7039976 7039979 7045330 495535093 495535092 7045317 274383441 1093814683 495535097 7046931 7046905 7047904 7047916 495530609 7047881 7047901 7368902 7368902-AddedOffRampEdge 7370135 1230633238 7374415 1230633242 1359673887 7374873 7381774 1359673884 491573236 76232191 491578742 7381798 38245925 491573232 491574922 1269104017 491586085 491586092 7382655 7382650 1092346866 491586076 217164331 7379509 491592275 75919456 491592278 1006085747 1006085748 1333532316"/>
    </vehicle>
    <vehicle id="route_E1_A2" depart="0.00">
        <route edges="1194747955 1194747954 440995086 1194747958 128965109 254282339 254282340#1 385736146 1354687747"/>
    </vehicle>
    <vehicle id="route_E1_A3" depart="0.00">
        <route edges="1194747955 1194747954 440995086 1194747958 128965109 254282339 254282340#1 385736146 1354687748 221205615 491590643#0 1331091275 221205616#0 221205616#1 221205616#2 679563339 679563336 39911408#0 39911408#1 254282341 1331091279 7377811 7377781"/>
    </vehicle>
    <vehicle id="route_E1_A4" depart="0.00">
        <route edges="1194747955 1194747954 440995086 1194747958 128965109 254282339 254282340#1 385736146 1354687748 221205615 491590643#0 1331091275 221205616#0 221205616#1 221205616#2 679563339 679563336 39911408#0 39911408#1 254282341 1331091279 7377811 7377791 1093958473 7377853 7376769 1093958036 495537084 7376543 7376553 7042478 7042483 495536678 7042488 1093957498 38524672 495536350 7040861#0 722735725#0 722735725#1 7040879#0 866749029#1 495536083 7039976 7039979 7045330 495535093 495535092 7045317 274383441 1093814683 495535097 7046931 7046905 7047904 7047916 495530609 7047881 7047901 7368902 7368902-AddedOffRampEdge 7370135 1230633238 7374415 1230633242 1359673887 7374873 7381774 1359673884 491573236 76232191 491578742 7381798 38245925 491573232 491574922 1269104017 491586085 491586092 7382655 7382650 1092346866 491586076 217164331 7379509 491592275 75919461 491590649 1332839356 1332839357 130641964 1194755869 1194755870 859704531 593062896 221205614 7379192#2 679563338 39911405#0 221378827 7377836 6595423"/>
    </vehicle>
    <vehicle id="route_E1_A5" depart="0.00">
        <route edges="1194747955 1194747954 440995086 1194747958 128965109 254282339 254282340#1 385736146 1354687748 221205615 491590643#0 1331091275 221205616#0 221205616#1 221205616#2 679563339 679563336 39911408#0 39911408#1 254282341 1331091279 7377811 7377791 1093958473 7377853 7376769 1093958036 495537084 7376559"/>
    </vehicle>
    <vehicle id="route_E1_A6" depart="0.00">
        <route edges="1194747955 1194747954 440995086 1194747958 128965109 254282339 254282340#1 385736146 1354687748 221205615 491590643#0 1331091275 221205616#0 221205616#1 221205616#2 679563339 679563336 39911408#0 39911408#1 254282341 1331091279 7377811 7377791 1093958473 7377853 7376769 1093958036 495537084 7376543 7376553 7042478 7042483 495536678 7042496 1275364472 486873267 1275364470"/>
    </vehicle>
    <vehicle id="route_E1_A7" depart="0.00">
        <route edges="1194747955 1194747954 440995086 1194747958 128965109 254282339 254282340#1 385736146 1354687748 221205615 491590643#0 1331091275 221205616#0 221205616#1 221205616#2 679563339 679563336 39911408#0 39911408#1 254282341 1331091279 7377811 7377791 1093958473 7377853 7376769 1093958036 495537084 7376543 7376553 7042478 7042483 495536678 7042488 1093957498 38524672 495536350 76025458 1235069475"/>
    </vehicle>
    <vehicle id="route_E1_A8" depart="0.00">
        <route edges="1194747955 1194747954 440995086 1194747958 128965109 254282339 254282340#1 385736146 1354687748 221205615 491590643#0 1331091275 221205616#0 221205616#1 221205616#2 679563339 679563336 39911408#0 39911408#1 254282341 1331091279 7377811 7377791 1093958473 7377853 7376769 1093958036 495537084 7376543 7376553 7042478 7042483 495536678 7042488 1093957498 38524672 495536350 7040861#0 722735725#0 722735725#1 7040879#0 866749029#1 495536083 76024917 1288018762"/>
    </vehicle>
    <vehicle id="route_E1_A9" depart="0.00">
        <route edges="1194747955 1194747954 440995086 1194747958 128965109 254282339 254282340#1 385736146 1354687748 221205615 491590643#0 1331091275 221205616#0 221205616#1 221205616#2 679563339 679563336 39911408#0 39911408#1 254282341 1331091279 7377811 7377791 1093958473 7377853 7376769 1093958036 495537084 7376543 7376553 7042478 7042483 495536678 7042488 1093957498 38524672 495536350 7040861#0 722735725#0 722735725#1 7040879#0 866749029#1 495536083 7039976 7039979 7045330 495535093 495535092 38572019 76024919 383466467 1354663626 7040607 495535095"/>
    </vehicle>
    <vehicle id="route_E1_A10" depart="0.00">
        <route edges="1194747955 1194747954 440995086 1194747958 128965109 254282339 254282340#1 385736146 1354687748 221205615 491590643#0 1331091275 221205616#0 221205616#1 221205616#2 679563339 679563336 39911408#0 39911408#1 254282341 1331091279 7377811 7377791 1093958473 7377853 7376769 1093958036 495537084 7376543 7376553 7042478 7042483 495536678 7042488 1093957498 38524672 495536350 7040861#0 722735725#0 722735725#1 7040879#0 866749029#1 495536083 7039976 7039979 7045330 245321591 274383436 1354663623 7044066 999040449 479192361 1291316756 7043826"/>
    </vehicle>
    <vehicle id="route_E1_A11" depart="0.00">
        <route edges="1194747955 1194747954 440995086 1194747958 128965109 254282339 254282340#1 385736146 1354687748 221205615 491590643#0 1331091275 221205616#0 221205616#1 221205616#2 679563339 679563336 39911408#0 39911408#1 254282341 1331091279 7377811 7377791 1093958473 7377853 7376769 1093958036 495537084 7376543 7376553 7042478 7042483 495536678 7042488 1093957498 38524672 495536350 7040861#0 722735725#0 722735725#1 7040879#0 866749029#1 495536083 7039976 7039979 7045330 495535093 495535092 7045317 274383441 1093814683 495535097 7046900 33912477"/>
    </vehicle>
    <vehicle id="route_E1_A12" depart="0.00">
        <route edges="1194747955 1194747954 440995086 1194747958 128965109 254282339 254282340#1 385736146 1354687748 221205615 491590643#0 1331091275 221205616#0 221205616#1 221205616#2 679563339 679563336 39911408#0 39911408#1 254282341 1331091279 7377811 7377791 1093958473 7377853 7376769 1093958036 495537084 7376543 7376553 7042478 7042483 495536678 7042488 1093957498 38524672 495536350 7040861#0 722735725#0 722735725#1 7040879#0 866749029#1 495536083 7039976 7039979 7045330 495535093 495535092 7045317 274383441 1093814683 495535097 7046931 7046905 1266120160 761458302"/>
    </vehicle>
    <vehicle id="route_E1_A13" depart="0.00">
        <route edges="1194747955 1194747954 440995086 1194747958 128965109 254282339 254282340#1 385736146 1354687748 221205615 491590643#0 1331091275 221205616#0 221205616#1 221205616#2 679563339 679563336 39911408#0 39911408#1 254282341 1331091279 7377811 7377791 1093958473 7377853 7376769 1093958036 495537084 7376543 7376553 7042478 7042483 495536678 7042488 1093957498 38524672 495536350 7040861#0 722735725#0 722735725#1 7040879#0 866749029#1 495536083 7039976 7039979 7045330 495535093 495535092 7045317 274383441 1093814683 495535097 7046931 7046905 7047904 7047916 495530609 7047879 910066516 910066514 7047878 7047894"/>
    </vehicle>
    <vehicle id="route_E1_A14" depart="0.00">
        <route edges="1194747955 1194747954 440995086 1194747958 128965109 254282339 254282340#1 385736146 1354687748 221205615 491590643#0 1331091275 221205616#0 221205616#1 221205616#2 679563339 679563336 39911408#0 39911408#1 254282341 1331091279 7377811 7377791 1093958473 7377853 7376769 1093958036 495537084 7376543 7376553 7042478 7042483 495536678 7042488 1093957498 38524672 495536350 7040861#0 722735725#0 722735725#1 7040879#0 866749029#1 495536083 7039976 7039979 7045330 495535093 495535092 7045317 274383441 1093814683 495535097 7046931 7046905 7047904 7047916 495530609 7047879 910066516 910066514 7047878 7047892 7361666 79355806 7051882 495531783"/>
    </vehicle>
    <vehicle id="route_E1_A15" depart="0.00">
        <route edges="1194747955 1194747954 440995086 1194747958 128965109 254282339 254282340#1 385736146 1354687748 221205615 491590643#0 1331091275 221205616#0 221205616#1 221205616#2 679563339 679563336 39911408#0 39911408#1 254282341 1331091279 7377811 7377791 1093958473 7377853 7376769 1093958036 495537084 7376543 7376553 7042478 7042483 495536678 7042488 1093957498 38524672 495536350 7040861#0 722735725#0 722735725#1 7040879#0 866749029#1 495536083 7039976 7039979 7045330 495535093 495535092 7045317 274383441 1093814683 495535097 7046931 7046905 7047904 7047916 495530609 7047881 7047901 7368902 7368902-AddedOffRampEdge 761267546 9542821 386870322"/>
    </vehicle>
    <vehicle id="route_E1_A16" depart="0.00">
        <route edges="1194747955 1194747954 440995086 1194747958 128965109 254282339 254282340#1 385736146 1354687748 221205615 491590643#0 1331091275 221205616#0 221205616#1 221205616#2 679563339 679563336 39911408#0 39911408#1 254282341 1331091279 7377811 7377791 1093958473 7377853 7376769 1093958036 495537084 7376543 7376553 7042478 7042483 495536678 7042488 1093957498 38524672 495536350 7040861#0 722735725#0 722735725#1 7040879#0 866749029#1 495536083 7039976 7039979 7045330 495535093 495535092 7045317 274383441 1093814683 495535097 7046931 7046905 7047904 7047916 495530609 7047881 7047901 7368902 7368902-AddedOffRampEdge 7370135 1230633238 7374415 1230633242 1230633240 26930308 1147953415"/>
    </vehicle>
    <vehicle id="route_E1_A17" depart="0.00">
        <route edges="1194747955 1194747954 440995086 1194747958 128965109 254282339 254282340#1 385736146 1354687748 221205615 491590643#0 1331091275 221205616#0 221205616#1 221205616#2 679563339 679563336 39911408#0 39911408#1 254282341 1331091279 7377811 7377791 1093958473 7377853 7376769 1093958036 495537084 7376543 7376553 7042478 7042483 495536678 7042488 1093957498 38524672 495536350 7040861#0 722735725#0 722735725#1 7040879#0 866749029#1 495536083 7039976 7039979 7045330 495535093 495535092 7045317 274383441 1093814683 495535097 7046931 7046905 7047904 7047916 495530609 7047881 7047901 7368902 7368902-AddedOffRampEdge 7370135 1230633238 7374415 1230633242 1359673887 7374873 7381774 1359673883 1354023397 1354023396 81739212 1190841568"/>
    </vehicle>
    <vehicle id="route_E1_A18" depart="0.00">
        <route edges="1194747955 1194747954 440995086 1194747958 128965109 254282339 254282340#1 385736146 1354687748 221205615 491590643#0 1331091275 221205616#0 221205616#1 221205616#2 679563339 679563336 39911408#0 39911408#1 254282341 1331091279 7377811 7377791 1093958473 7377853 7376769 1093958036 495537084 7376543 7376553 7042478 7042483 495536678 7042488 1093957498 38524672 495536350 7040861#0 722735725#0 722735725#1 7040879#0 866749029#1 495536083 7039976 7039979 7045330 495535093 495535092 7045317 274383441 1093814683 495535097 7046931 7046905 7047904 7047916 495530609 7047881 7047901 7368902 7368902-AddedOffRampEdge 7370135 1230633238 7374415 1230633242 1359673887 7374873 7381774 1359673884 491573236 1270857679 707000464 1270857681 1270857682 1270857683 32011116 1270860757"/>
    </vehicle>
    <vehicle id="route_E1_A19" depart="0.00">
        <route edges="1194747955 1194747954 440995086 1194747958 128965109 254282339 254282340#1 385736146 1354687748 221205615 491590643#0 1331091275 221205616#0 221205616#1 221205616#2 679563339 679563336 39911408#0 39911408#1 254282341 1331091279 7377811 7377791 1093958473 7377853 7376769 1093958036 495537084 7376543 7376553 7042478 7042483 495536678 7042488 1093957498 38524672 495536350 7040861#0 722735725#0 722735725#1 7040879#0 866749029#1 495536083 7039976 7039979 7045330 495535093 495535092 7045317 274383441 1093814683 495535097 7046931 7046905 7047904 7047916 495530609 7047881 7047901 7368902 7368902-AddedOffRampEdge 7370135 1230633238 7374415 1230633242 1359673887 7374873 7381774 1359673884 491573236 76232191 491578742 7381798 38245925 491573232 1269325984 776820734 7382996#0 7382923"/>
    </vehicle>
    <vehicle id="route_E1_A20" depart="0.00">
        <route edges="1194747955 1194747954 440995086 1194747958 128965109 254282339 254282340#1 385736146 1354687748 221205615 491590643#0 1331091275 221205616#0 221205616#1 221205616#2 679563339 679563336 39911408#0 39911408#1 254282341 1331091279 7377811 7377791 1093958473 7377853 7376769 1093958036 495537084 7376543 7376553 7042478 7042483 495536678 7042488 1093957498 38524672 495536350 7040861#0 722735725#0 722735725#1 7040879#0 866749029#1 495536083 7039976 7039979 7045330 495535093 495535092 7045317 274383441 1093814683 495535097 7046931 7046905 7047904 7047916 495530609 7047881 7047901 7368902 7368902-AddedOffRampEdge 7370135 1230633238 7374415 1230633242 1359673887 7374873 7381774 1359673884 491573236 76232191 491578742 7381798 38245925 491573232 491574922 1269104017 491586085 75919472 440995089 1092981214#0 1092981214#2 442727421#0"/>
    </vehicle>
    <vehicle id="route_E1_A21" depart="0.00">
        <route edges="1194747955 1194747954 440995086 1194747958 128965109 254282339 254282340#1 385736146 1354687748 221205615 491590643#0 1331091275 221205616#0 221205616#1 221205616#2 679563339 679563336 39911408#0 39911408#1 254282341 1331091279 7377811 7377791 1093958473 7377853 7376769 1093958036 495537084 7376543 7376553 7042478 7042483 495536678 7042488 1093957498 38524672 495536350 7040861#0 722735725#0 722735725#1 7040879#0 866749029#1 495536083 7039976 7039979 7045330 495535093 495535092 7045317 274383441 1093814683 495535097 7046931 7046905 7047904 7047916 495530609 7047881 7047901 7368902 7368902-AddedOffRampEdge 7370135 1230633238 7374415 1230633242 1359673887 7374873 7381774 1359673884 491573236 76232191 491578742 7381798 38245925 491573232 491574922 1269104017 491586085 75919472 440995089 1092981214#0 1092981214#2 741646123#0 7382662#0 7382662#1 7382662#1-AddedOffRampEdge 7382651 1265248684"/>
    </vehicle>
    <vehicle id="route_E1_A22" depart="0.00">
        <route edges="1194747955 1194747954 440995086 1194747958 128965109 254282339 254282340#1 385736146 1354687748 221205615 491590643#0 1331091275 221205616#0 221205616#1 221205616#2 679563339 679563336 39911408#0 39911408#1 254282341 1331091279 7377811 7377791 1093958473 7377853 7376769 1093958036 495537084 7376543 7376553 7042478 7042483 495536678 7042488 1093957498 38524672 495536350 7040861#0 722735725#0 722735725#1 7040879#0 866749029#1 495536083 7039976 7039979 7045330 495535093 495535092 7045317 274383441 1093814683 495535097 7046931 7046905 7047904 7047916 495530609 7047881 7047901 7368902 7368902-AddedOffRampEdge 7370135 1230633238 7374415 1230633242 1359673887 7374873 7381774 1359673884 491573236 76232191 491578742 7381798 38245925 491573232 491574922 1269104017 491586085 491586092 7382655 7382650 1092346866 491586076 217164329 7379539 7379518 817918979"/>
    </vehicle>
    <vehicle id="route_E2_A1" depart="0.00">
        <route edges="491590645 130641962 221205619 859704530 1331091276 221205615 491590643#0 1331091275 221205616#0 221205616#1 221205616#2 679563339 679563336 39911408#0 39911408#1 254282341 1331091279 7377811 7377791 1093958473 7377853 7376769 1093958036 495537084 7376543 7376553 7042478 7042483 495536678 7042488 1093957498 38524672 495536350 7040861#0 722735725#0 722735725#1 7040879#0 866749029#1 495536083 7039976 7039979 7045330 495535093 495535092 7045317 274383441 1093814683 495535097 7046931 7046905 7047904 7047916 495530609 7047881 7047901 7368902 7368902-AddedOffRampEdge 7370135 1230633238 7374415 1230633242 1359673887 7374873 7381774 1359673884 491573236 76232191 491578742 7381798 38245925 491573232 491574922 1269104017 491586085 491586092 7382655 7382650 1092346866 491586076 217164331 7379509 491592275 75919456 491592278 1006085747 1006085748 1333532316"/>
    </vehicle>
    <vehicle id="route_E2_A2" depart="0.00">
        <route edges="491590645 130641962 221205619 859704530 1331091276 221205615 491590643#0 1331091275 221205616#0 221205616#1 221205616#2 679563339 679563336 39911408#0 39911408#1 254282341 1331091279 7377811 7377791 1093958473 7377853 7376769 1093958036 495537084 7376543 7376553 7042478 7042483 495536678 7042488 1093957498 38524672 495536350 7040861#0 722735725#0 722735725#1 7040879#0 866749029#1 495536083 7039976 7039979 7045330 495535093 495535092 7045317 274383441 1093814683 495535097 7046931 7046905 7047904 7047916 495530609 7047881 7047901 7368902 7368902-AddedOffRampEdge 7370135 1230633238 7374415 1230633242 1359673887 7374873 7381774 1359673884 491573236 76232191 491578742 7381798 38245925 491573232 491574922 1269104017 491586085 491586092 7382655 7382650 1092346866 491586076 217164331 7379509 491592275 75919461 491590649 1332839356 48748939 1194747958 128965109 254282339 254282340#1 385736146 1354687747"/>
    </vehicle>
    <vehicle id="route_E2_A3" depart="0.00">
        <route edges="491590645 130641962 221205619 859704530 1331091276 221205615 491590643#0 1331091275 221205616#0 221205616#1 221205616#2 679563339 679563336 39911408#0 39911408#1 254282341 1331091279 7377811 7377781"/>
    </vehicle>
    <vehicle id="route_E2_A4" depart="0.00">
        <route edges="491590645 1331091278 859704531 593062896 221205614 7379192#2 679563338 39911405#0 221378827 7377836 6595423"/>
    </vehicle>
    <vehicle id="route_E2_A5" depart="0.00">
        <route edges="491590645 130641962 221205619 859704530 1331091276 221205615 491590643#0 1331091275 221205616#0 221205616#1 221205616#2 679563339 679563336 39911408#0 39911408#1 254282341 1331091279 7377811 7377791 1093958473 7377853 7376769 1093958036 495537084 7376559"/>
    </vehicle>
    <vehicle id="route_E2_A6" depart="0.00">
        <route edges="491590645 130641962 221205619 859704530 1331091276 221205615 491590643#0 1331091275 221205616#0 221205616#1 221205616#2 679563339 679563336 39911408#0 39911408#1 254282341 1331091279 7377811 7377791 1093958473 7377853 7376769 1093958036 495537084 7376543 7376553 7042478 7042483 495536678 7042496 1275364472 486873267 1275364470"/>
    </vehicle>
    <vehicle id="route_E2_A7" depart="0.00">
        <route edges="491590645 130641962 221205619 859704530 1331091276 221205615 491590643#0 1331091275 221205616#0 221205616#1 221205616#2 679563339 679563336 39911408#0 39911408#1 254282341 1331091279 7377811 7377791 1093958473 7377853 7376769 1093958036 495537084 7376543 7376553 7042478 7042483 495536678 7042488 1093957498 38524672 495536350 76025458 1235069475"/>
    </vehicle>
    <vehicle id="route_E2_A8" depart="0.00">
        <route edges="491590645 130641962 221205619 859704530 1331091276 221205615 491590643#0 1331091275 221205616#0 221205616#1 221205616#2 679563339 679563336 39911408#0 39911408#1 254282341 1331091279 7377811 7377791 1093958473 7377853 7376769 1093958036 495537084 7376543 7376553 7042478 7042483 495536678 7042488 1093957498 38524672 495536350 7040861#0 722735725#0 722735725#1 7040879#0 866749029#1 495536083 76024917 1288018762"/>
    </vehicle>
    <vehicle id="route_E2_A9" depart="0.00">
        <route edges="491590645 130641962 221205619 859704530 1331091276 221205615 491590643#0 1331091275 221205616#0 221205616#1 221205616#2 679563339 679563336 39911408#0 39911408#1 254282341 1331091279 7377811 7377791 1093958473 7377853 7376769 1093958036 495537084 7376543 7376553 7042478 7042483 495536678 7042488 1093957498 38524672 495536350 7040861#0 722735725#0 722735725#1 7040879#0 866749029#1 495536083 7039976 7039979 7045330 495535093 495535092 38572019 76024919 383466467 1354663626 7040607 495535095"/>
    </vehicle>
    <vehicle id="route_E2_A10" depart="0.00">
        <route edges="491590645 130641962 221205619 859704530 1331091276 221205615 491590643#0 1331091275 221205616#0 221205616#1 221205616#2 679563339 679563336 39911408#0 39911408#1 254282341 1331091279 7377811 7377791 1093958473 7377853 7376769 1093958036 495537084 7376543 7376553 7042478 7042483 495536678 7042488 1093957498 38524672 495536350 7040861#0 722735725#0 722735725#1 7040879#0 866749029#1 495536083 7039976 7039979 7045330 245321591 274383436 1354663623 7044066 999040449 479192361 1291316756 7043826"/>
    </vehicle>
    <vehicle id="route_E2_A11" depart="0.00">
        <route edges="491590645 130641962 221205619 859704530 1331091276 221205615 491590643#0 1331091275 221205616#0 221205616#1 221205616#2 679563339 679563336 39911408#0 39911408#1 254282341 1331091279 7377811 7377791 1093958473 7377853 7376769 1093958036 495537084 7376543 7376553 7042478 7042483 495536678 7042488 1093957498 38524672 495536350 7040861#0 722735725#0 722735725#1 7040879#0 866749029#1 495536083 7039976 7039979 7045330 495535093 495535092 7045317 274383441 1093814683 495535097 7046900 33912477"/>
    </vehicle>
    <vehicle id="route_E2_A12" depart="0.00">
        <route edges="491590645 130641962 221205619 859704530 1331091276 221205615 491590643#0 1331091275 221205616#0 221205616#1 221205616#2 679563339 679563336 39911408#0 39911408#1 254282341 1331091279 7377811 7377791 1093958473 7377853 7376769 1093958036 495537084 7376543 7376553 7042478 7042483 495536678 7042488 1093957498 38524672 495536350 7040861#0 722735725#0 722735725#1 7040879#0 866749029#1 495536083 7039976 7039979 7045330 495535093 495535092 7045317 274383441 1093814683 495535097 7046931 7046905 1266120160 761458302"/>
    </vehicle>
    <vehicle id="route_E2_A13" depart="0.00">
        <route edges="491590645 130641962 221205619 859704530 1331091276 221205615 491590643#0 1331091275 221205616#0 221205616#1 221205616#2 679563339 679563336 39911408#0 39911408#1 254282341 1331091279 7377811 7377791 1093958473 7377853 7376769 1093958036 495537084 7376543 7376553 7042478 7042483 495536678 7042488 1093957498 38524672 495536350 7040861#0 722735725#0 722735725#1 7040879#0 866749029#1 495536083 7039976 7039979 7045330 495535093 495535092 7045317 274383441 1093814683 495535097 7046931 7046905 7047904 7047916 495530609 7047879 910066516 910066514 7047878 7047894"/>
    </vehicle>
    <vehicle id="route_E2_A14" depart="0.00">
        <route edges="491590645 130641962 221205619 859704530 1331091276 221205615 491590643#0 1331091275 221205616#0 221205616#1 221205616#2 679563339 679563336 39911408#0 39911408#1 254282341 1331091279 7377811 7377791 1093958473 7377853 7376769 1093958036 495537084 7376543 7376553 7042478 7042483 495536678 7042488 1093957498 38524672 495536350 7040861#0 722735725#0 722735725#1 7040879#0 866749029#1 495536083 7039976 7039979 7045330 495535093 495535092 7045317 274383441 1093814683 495535097 7046931 7046905 7047904 7047916 495530609 7047879 910066516 910066514 7047878 7047892 7361666 79355806 7051882 495531783"/>
    </vehicle>
    <vehicle id="route_E2_A15" depart="0.00">
        <route edges="491590645 130641962 221205619 859704530 1331091276 221205615 491590643#0 1331091275 221205616#0 221205616#1 221205616#2 679563339 679563336 39911408#0 39911408#1 254282341 1331091279 7377811 7377791 1093958473 7377853 7376769 1093958036 495537084 7376543 7376553 7042478 7042483 495536678 7042488 1093957498 38524672 495536350 7040861#0 722735725#0 722735725#1 7040879#0 866749029#1 495536083 7039976 7039979 7045330 495535093 495535092 7045317 274383441 1093814683 495535097 7046931 7046905 7047904 7047916 495530609 7047881 7047901 7368902 7368902-AddedOffRampEdge 761267546 9542821 386870322"/>
    </vehicle>
    <vehicle id="route_E2_A16" depart="0.00">
        <route edges="491590645 130641962 221205619 859704530 1331091276 221205615 491590643#0 1331091275 221205616#0 221205616#1 221205616#2 679563339 679563336 39911408#0 39911408#1 254282341 1331091279 7377811 7377791 1093958473 7377853 7376769 1093958036 495537084 7376543 7376553 7042478 7042483 495536678 7042488 1093957498 38524672 495536350 7040861#0 722735725#0 722735725#1 7040879#0 866749029#1 495536083 7039976 7039979 7045330 495535093 495535092 7045317 274383441 1093814683 495535097 7046931 7046905 7047904 7047916 495530609 7047881 7047901 7368902 7368902-AddedOffRampEdge 7370135 1230633238 7374415 1230633242 1230633240 26930308 1147953415"/>
    </vehicle>
    <vehicle id="route_E2_A17" depart="0.00">
        <route edges="491590645 130641962 221205619 859704530 1331091276 221205615 491590643#0 1331091275 221205616#0 221205616#1 221205616#2 679563339 679563336 39911408#0 39911408#1 254282341 1331091279 7377811 7377791 1093958473 7377853 7376769 1093958036 495537084 7376543 7376553 7042478 7042483 495536678 7042488 1093957498 38524672 495536350 7040861#0 722735725#0 722735725#1 7040879#0 866749029#1 495536083 7039976 7039979 7045330 495535093 495535092 7045317 274383441 1093814683 495535097 7046931 7046905 7047904 7047916 495530609 7047881 7047901 7368902 7368902-AddedOffRampEdge 7370135 1230633238 7374415 1230633242 1359673887 7374873 7381774 1359673883 1354023397 1354023396 81739212 1190841568"/>
    </vehicle>
    <vehicle id="route_E2_A18" depart="0.00">
        <route edges="491590645 130641962 221205619 859704530 1331091276 221205615 491590643#0 1331091275 221205616#0 221205616#1 221205616#2 679563339 679563336 39911408#0 39911408#1 254282341 1331091279 7377811 7377791 1093958473 7377853 7376769 1093958036 495537084 7376543 7376553 7042478 7042483 495536678 7042488 1093957498 38524672 495536350 7040861#0 722735725#0 722735725#1 7040879#0 866749029#1 495536083 7039976 7039979 7045330 495535093 495535092 7045317 274383441 1093814683 495535097 7046931 7046905 7047904 7047916 495530609 7047881 7047901 7368902 7368902-AddedOffRampEdge 7370135 1230633238 7374415 1230633242 1359673887 7374873 7381774 1359673884 491573236 1270857679 707000464 1270857681 1270857682 1270857683 32011116 1270860757"/>
    </vehicle>
    <vehicle id="route_E2_A19" depart="0.00">
        <route edges="491590645 130641962 221205619 859704530 1331091276 221205615 491590643#0 1331091275 221205616#0 221205616#1 221205616#2 679563339 679563336 39911408#0 39911408#1 254282341 1331091279 7377811 7377791 1093958473 7377853 7376769 1093958036 495537084 7376543 7376553 7042478 7042483 495536678 7042488 1093957498 38524672 495536350 7040861#0 722735725#0 722735725#1 7040879#0 866749029#1 495536083 7039976 7039979 7045330 495535093 495535092 7045317 274383441 1093814683 495535097 7046931 7046905 7047904 7047916 495530609 7047881 7047901 7368902 7368902-AddedOffRampEdge 7370135 1230633238 7374415 1230633242 1359673887 7374873 7381774 1359673884 491573236 76232191 491578742 7381798 38245925 491573232 1269325984 776820734 7382996#0 7382923"/>
    </vehicle>
    <vehicle id="route_E2_A20" depart="0.00">
        <route edges="491590645 130641962 221205619 859704530 1331091276 221205615 491590643#0 1331091275 221205616#0 221205616#1 221205616#2 679563339 679563336 39911408#0 39911408#1 254282341 1331091279 7377811 7377791 1093958473 7377853 7376769 1093958036 495537084 7376543 7376553 7042478 7042483 495536678 7042488 1093957498 38524672 495536350 7040861#0 722735725#0 722735725#1 7040879#0 866749029#1 495536083 7039976 7039979 7045330 495535093 495535092 7045317 274383441 1093814683 495535097 7046931 7046905 7047904 7047916 495530609 7047881 7047901 7368902 7368902-AddedOffRampEdge 7370135 1230633238 7374415 1230633242 1359673887 7374873 7381774 1359673884 491573236 76232191 491578742 7381798 38245925 491573232 491574922 1269104017 491586085 75919472 440995089 1092981214#0 1092981214#2 442727421#0"/>
    </vehicle>
    <vehicle id="route_E2_A21" depart="0.00">
        <route edges="491590645 130641962 221205619 859704530 1331091276 221205615 491590643#0 1331091275 221205616#0 221205616#1 221205616#2 679563339 679563336 39911408#0 39911408#1 254282341 1331091279 7377811 7377791 1093958473 7377853 7376769 1093958036 495537084 7376543 7376553 7042478 7042483 495536678 7042488 1093957498 38524672 495536350 7040861#0 722735725#0 722735725#1 7040879#0 866749029#1 495536083 7039976 7039979 7045330 495535093 495535092 7045317 274383441 1093814683 495535097 7046931 7046905 7047904 7047916 495530609 7047881 7047901 7368902 7368902-AddedOffRampEdge 7370135 1230633238 7374415 1230633242 1359673887 7374873 7381774 1359673884 491573236 76232191 491578742 7381798 38245925 491573232 491574922 1269104017 491586085 75919472 440995089 1092981214#0 1092981214#2 741646123#0 7382662#0 7382662#1 7382662#1-AddedOffRampEdge 7382651 1265248684"/>
    </vehicle>
    <vehicle id="route_E2_A22" depart="0.00">