<additional xmlns:xsi="http://www.w3.org/2001/XMLSchema-instance" xsi:noNamespaceSchemaLocation="http://sumo.dlr.de/xsd/additional_file.xsd">
    <inductionLoop id="0_RWS01_MONIBAS_0100vwp0290ra_0" lane="221205614_0" pos="188.85" period="3600.0" file="logs/0_RWS01_MONIBAS_0100vwp0290ra_0.xml"/>
    <inductionLoop id="0_RWS01_MONIBAS_0100vwp0290ra_1" lane="221205614_1" pos="189.08" period="3600.0" file="logs/0_RWS01_MONIBAS_0100vwp0290ra_1.xml"/>
    <inductionLoop id="1_RWS01_MONIBAS_0100vwp0294ra_0" lane="7379192#2_0" pos="190.44" period="3600.0" file="nul"/>
    <inductionLoop id="1_RWS01_MONIBAS_0100vwp0294ra_1" lane="7379192#2_1" pos="190.21" period="3600.0" file="logs/1_RWS01_MONIBAS_0100vwp0294ra_1.xml"/>
    <inductionLoop id="2_RWS01_MONIBAS_0100vwp0296ra_0" lane="679563338_0" pos="88.05" period="3600.0" file="logs/2_RWS01_MONIBAS_0100vwp0296ra_0.xml"/>
    <inductionLoop id="2_RWS01_MONIBAS_0100vwp0296ra_1" lane="679563338_1" pos="88.04" period="3600.0" file="logs/2_RWS01_MONIBAS_0100vwp0296ra_1.xml"/>
    <inductionLoop id="3_RWS01_MONIBAS_0100vwp0298ra_0" lane="679563338_0" pos="237.03" period="3600.0" file="nul"/>
    <inductionLoop id="3_RWS01_MONIBAS_0100vwp0298ra_1" lane="679563338_1" pos="237.02" period="3600.0" file="nul"/>
    <inductionLoop id="4_RWS01_MONIBAS_0100vwp0299ra_0" lane="679563338_0" pos="334.02" period="3600.0" file="logs/4_RWS01_MONIBAS_0100vwp0299ra_0.xml"/>
    <inductionLoop id="4_RWS01_MONIBAS_0100vwp0299ra_1" lane="679563338_1" pos="334.01" period="3600.0" file="logs/4_RWS01_MONIBAS_0100vwp0299ra_1.xml"/>
    <inductionLoop id="5_RWS01_MONIBAS_0100vwp0300ra_0" lane="679563338_0" pos="438.01" period="3600.0" file="logs/5_RWS01_MONIBAS_0100vwp0300ra_0.xml"/>
    <inductionLoop id="5_RWS01_MONIBAS_0100vwp0300ra_1" lane="679563338_1" pos="437.99" period="3600.0" file="logs/5_RWS01_MONIBAS_0100vwp0300ra_1.xml"/>
    <inductionLoop id="6_RWS01_MONIBAS_0100vwp0301ra_0" lane="679563338_0" pos="517.00" period="3600.0" file="logs/6_RWS01_MONIBAS_0100vwp0301ra_0.xml"/>
    <inductionLoop id="6_RWS01_MONIBAS_0100vwp0301ra_1" lane="679563338_1" pos="516.98" period="3600.0" file="logs/6_RWS01_MONIBAS_0100vwp0301ra_1.xml"/>
    <inductionLoop id="7_RWS01_MONIBAS_0100vwp0302ra_0" lane="679563338_0" pos="616.99" period="3600.0" file="nul"/>
    <inductionLoop id="7_RWS01_MONIBAS_0100vwp0302ra_1" lane="679563338_1" pos="616.97" period="3600.0" file="logs/7_RWS01_MONIBAS_0100vwp0302ra_1.xml"/>
    <inductionLoop id="8_RWS01_MONIBAS_0101hrr0287ra_0" lane="221205619_0" pos="242.46" period="3600.0" file="logs/8_RWS01_MONIBAS_0101hrr0287ra_0.xml"/>
    <inductionLoop id="8_RWS01_MONIBAS_0101hrr0287ra_1" lane="221205619_1" pos="239.35" period="3600.0" file="logs/8_RWS01_MONIBAS_0101hrr0287ra_1.xml"/>
    <inductionLoop id="8_RWS01_MONIBAS_0101hrr0287ra_2" lane="221205619_2" pos="236.30" period="3600.0" file="logs/8_RWS01_MONIBAS_0101hrr0287ra_2.xml"/>
    <inductionLoop id="8_RWS01_MONIBAS_0101hrr0287ra_3" lane="221205619_3" pos="233.58" period="3600.0" file="logs/8_RWS01_MONIBAS_0101hrr0287ra_3.xml"/>
    <inductionLoop id="8_RWS01_MONIBAS_0101hrr0287ra_4" lane="221205619_4" pos="233.61" period="3600.0" file="logs/8_RWS01_MONIBAS_0101hrr0287ra_4.xml"/>
    <inductionLoop id="9_RWS01_MONIBAS_0101hrr0290ra_0" lane="221205615_0" pos="149.00" period="3600.0" file="logs/9_RWS01_MONIBAS_0101hrr0290ra_0.xml"/>
    <inductionLoop id="9_RWS01_MONIBAS_0101hrr0290ra_1" lane="221205615_1" pos="145.99" period="3600.0" file="logs/9_RWS01_MONIBAS_0101hrr0290ra_1.xml"/>
    <inductionLoop id="9_RWS01_MONIBAS_0101hrr0290ra_2" lane="221205615_2" pos="143.25" period="3600.0" file="logs/9_RWS01_MONIBAS_0101hrr0290ra_2.xml"/>
    <inductionLoop id="9_RWS01_MONIBAS_0101hrr0290ra_3" lane="221205615_3" pos="143.35" period="3600.0" file="logs/9_RWS01_MONIBAS_0101hrr0290ra_3.xml"/>
    <inductionLoop id="9_RWS01_MONIBAS_0101hrr0290ra_4" lane="221205615_4" pos="146.30" period="3600.0" file="logs/9_RWS01_MONIBAS_0101hrr0290ra_4.xml"/>
    <inductionLoop id="10_RWS01_MONIBAS_0101hrr0294ra_0" lane="221205616#2_0" pos="176.24" period="3600.0" file="logs/10_RWS01_MONIBAS_0101hrr0294ra_0.xml"/>
    <inductionLoop id="10_RWS01_MONIBAS_0101hrr0294ra_1" lane="221205616#2_1" pos="172.87" period="3600.0" file="logs/10_RWS01_MONIBAS_0101hrr0294ra_1.xml"/>
    <inductionLoop id="10_RWS01_MONIBAS_0101hrr0294ra_2" lane="221205616#2_2" pos="172.70" period="3600.0" file="logs/10_RWS01_MONIBAS_0101hrr0294ra_2.xml"/>
    <inductionLoop id="10_RWS01_MONIBAS_0101hrr0294ra_3" lane="221205616#2_3" pos="175.69" period="3600.0" file="logs/10_RWS01_MONIBAS_0101hrr0294ra_3.xml"/>
    <inductionLoop id="11_RWS01_MONIBAS_0101hrr0297ra_0" lane="679563339_0" pos="112.48" period="3600.0" file="nul"/>
    <inductionLoop id="11_RWS01_MONIBAS_0101hrr0297ra_1" lane="679563339_1" pos="109.29" period="3600.0" file="logs/11_RWS01_MONIBAS_0101hrr0297ra_1.xml"/>
    <inductionLoop id="11_RWS01_MONIBAS_0101hrr0297ra_2" lane="679563339_2" pos="109.29" period="3600.0" file="logs/11_RWS01_MONIBAS_0101hrr0297ra_2.xml"/>
    <inductionLoop id="11_RWS01_MONIBAS_0101hrr0297ra_3" lane="679563339_3" pos="112.49" period="3600.0" file="logs/11_RWS01_MONIBAS_0101hrr0297ra_3.xml"/>
    <inductionLoop id="12_RWS01_MONIBAS_0101hrr0298ra_0" lane="679563339_0" pos="269.46" period="3600.0" file="logs/12_RWS01_MONIBAS_0101hrr0298ra_0.xml"/>
    <inductionLoop id="12_RWS01_MONIBAS_0101hrr0298ra_1" lane="679563339_1" pos="266.27" period="3600.0" file="nul"/>
    <inductionLoop id="12_RWS01_MONIBAS_0101hrr0298ra_2" lane="679563339_2" pos="266.27" period="3600.0" file="logs/12_RWS01_MONIBAS_0101hrr0298ra_2.xml"/>
    <inductionLoop id="12_RWS01_MONIBAS_0101hrr0298ra_3" lane="679563339_3" pos="269.47" period="3600.0" file="logs/12_RWS01_MONIBAS_0101hrr0298ra_3.xml"/>
    <inductionLoop id="13_RWS01_MONIBAS_0101hrr0299ra_0" lane="679563339_0" pos="362.45" period="3600.0" file="logs/13_RWS01_MONIBAS_0101hrr0299ra_0.xml"/>
    <inductionLoop id="13_RWS01_MONIBAS_0101hrr0299ra_1" lane="679563339_1" pos="359.26" period="3600.0" file="logs/13_RWS01_MONIBAS_0101hrr0299ra_1.xml"/>
    <inductionLoop id="13_RWS01_MONIBAS_0101hrr0299ra_2" lane="679563339_2" pos="359.26" period="3600.0" file="logs/13_RWS01_MONIBAS_0101hrr0299ra_2.xml"/>
    <inductionLoop id="13_RWS01_MONIBAS_0101hrr0299ra_3" lane="679563339_3" pos="362.46" period="3600.0" file="logs/13_RWS01_MONIBAS_0101hrr0299ra_3.xml"/>
    <inductionLoop id="14_RWS01_MONIBAS_0101hrr0300ra_0" lane="679563339_0" pos="441.44" period="3600.0" file="logs/14_RWS01_MONIBAS_0101hrr0300ra_0.xml"/>
    <inductionLoop id="14_RWS01_MONIBAS_0101hrr0300ra_1" lane="679563339_1" pos="438.25" period="3600.0" file="nul"/>
    <inductionLoop id="14_RWS01_MONIBAS_0101hrr0300ra_2" lane="679563339_2" pos="438.25" period="3600.0" file="nul"/>
    <inductionLoop id="14_RWS01_MONIBAS_0101hrr0300ra_3" lane="679563339_3" pos="441.45" period="3600.0" file="logs/14_RWS01_MONIBAS_0101hrr0300ra_3.xml"/>
    <inductionLoop id="15_RWS01_MONIBAS_0101hrr0301ra_0" lane="679563339_0" pos="520.43" period="3600.0" file="logs/15_RWS01_MONIBAS_0101hrr0301ra_0.xml"/>
    <inductionLoop id="15_RWS01_MONIBAS_0101hrr0301ra_1" lane="679563339_1" pos="517.24" period="3600.0" file="logs/15_RWS01_MONIBAS_0101hrr0301ra_1.xml"/>
    <inductionLoop id="15_RWS01_MONIBAS_0101hrr0301ra_2" lane="679563339_2" pos="517.24" period="3600.0" file="logs/15_RWS01_MONIBAS_0101hrr0301ra_2.xml"/>
    <inductionLoop id="15_RWS01_MONIBAS_0101hrr0301ra_3" lane="679563339_3" pos="520.44" period="3600.0" file="nul"/>
    <inductionLoop id="16_RWS01_MONIBAS_0101hrr0302ra_0" lane="679563339_0" pos="624.41" period="3600.0" file="logs/16_RWS01_MONIBAS_0101hrr0302ra_0.xml"/>
    <inductionLoop id="16_RWS01_MONIBAS_0101hrr0302ra_1" lane="679563339_1" pos="621.22" period="3600.0" file="logs/16_RWS01_MONIBAS_0101hrr0302ra_1.xml"/>
    <inductionLoop id="16_RWS01_MONIBAS_0101hrr0302ra_2" lane="679563339_2" pos="621.23" period="3600.0" file="logs/16_RWS01_MONIBAS_0101hrr0302ra_2.xml"/>
    <inductionLoop id="16_RWS01_MONIBAS_0101hrr0302ra_3" lane="679563339_3" pos="624.43" period="3600.0" file="nul"/>
    <inductionLoop id="17_RWS01_MONICA_10D00A04783708200007_0" lane="385736146_0" pos="139.68" period="3600.0" file="logs/17_RWS01_MONICA_10D00A04783708200007_0.xml"/>
    <inductionLoop id="17_RWS01_MONICA_10D00A04783708200007_1" lane="385736146_1" pos="138.54" period="3600.0" file="logs/17_RWS01_MONICA_10D00A04783708200007_1.xml"/>
    <inductionLoop id="18_RWS01_MONICA_10D00A04783708200187_0" lane="385736146_0" pos="139.68" period="3600.0" file="logs/18_RWS01_MONICA_10D00A04783708200187_0.xml"/>
    <inductionLoop id="18_RWS01_MONICA_10D00A04783708200187_1" lane="385736146_1" pos="138.54" period="3600.0" file="logs/18_RWS01_MONICA_10D00A04783708200187_1.xml"/>
    <inductionLoop id="19_RWS01_MONICA_10D00A04783708200307_0" lane="385736146_0" pos="139.68" period="3600.0" file="logs/19_RWS01_MONICA_10D00A04783708200307_0.xml"/>
    <inductionLoop id="19_RWS01_MONICA_10D00A04783708200307_1" lane="385736146_1" pos="138.54" period="3600.0" file="logs/19_RWS01_MONICA_10D00A04783708200307_1.xml"/>
    <inductionLoop id="0_GEO0B_R_1_RWSTI358764_0" lane="7382654#0_0" pos="33.31" period="3600.0" file="logs/0_GEO0B_R_1_RWSTI358764_0.xml"/>
    <inductionLoop id="1_GEO0B_R_RWSTI358752_0" lane="776820734_0" pos="25.02" period="3600.0" file="logs/1_GEO0B_R_RWSTI358752_0.xml"/>
    <inductionLoop id="1_GEO0B_R_RWSTI358752_1" lane="776820734_1" pos="25.02" period="3600.0" file="logs/1_GEO0B_R_RWSTI358752_1.xml"/>
    <inductionLoop id="2_GEO0B_R_RWSTI358753_0" lane="798505000_0" pos="93.99" period="3600.0" file="nul"/>
    <inductionLoop id="3_GEO0B_R_RWSTI358762_0" lane="75919472_0" pos="47.79" period="3600.0" file="logs/3_GEO0B_R_RWSTI358762_0.xml"/>
    <inductionLoop id="4_GEO0B_R_RWSTI4348_0" lane="7382650_0" pos="154.68" period="3600.0" file="nul"/>
    <inductionLoop id="4_GEO0B_R_RWSTI4348_1" lane="7382650_1" pos="151.69" period="3600.0" file="logs/4_GEO0B_R_RWSTI4348_1.xml"/>
    <inductionLoop id="4_GEO0B_R_RWSTI4348_2" lane="7382650_2" pos="149.76" period="3600.0" file="logs/4_GEO0B_R_RWSTI4348_2.xml"/>
    <inductionLoop id="4_GEO0B_R_RWSTI4348_3" lane="7382650_3" pos="151.76" period="3600.0" file="nul"/>
    <inductionLoop id="5_GEO0K_K_RWSTI358765_0" lane="7382651_0" pos="133.87" period="3600.0" file="logs/5_GEO0K_K_RWSTI358765_0.xml"/>
    <inductionLoop id="5_GEO0K_K_RWSTI358765_1" lane="7382651_1" pos="131.79" period="3600.0" file="logs/5_GEO0K_K_RWSTI358765_1.xml"/>
    <inductionLoop id="6_GEO0K_K_RWSTI358800_0" lane="817918979_0" pos="196.40" period="3600.0" file="logs/6_GEO0K_K_RWSTI358800_0.xml"/>
    <inductionLoop id="6_GEO0K_K_RWSTI358800_1" lane="817918979_1" pos="194.52" period="3600.0" file="logs/6_GEO0K_K_RWSTI358800_1.xml"/>
    <inductionLoop id="7_GEO0K_K_RWSTI358801_0" lane="1012552624_0" pos="13.37" period="3600.0" file="logs/7_GEO0K_K_RWSTI358801_0.xml"/>
    <inductionLoop id="8_RWS01_MONIBAS_0101hrr0225ra_1_0" lane="491573232_0" pos="190.92" period="3600.0" file="logs/8_RWS01_MONIBAS_0101hrr0225ra_1_0.xml"/>
    <inductionLoop id="8_RWS01_MONIBAS_0101hrr0225ra_1_1" lane="491573232_1" pos="187.46" period="3600.0" file="logs/8_RWS01_MONIBAS_0101hrr0225ra_1_1.xml"/>
    <inductionLoop id="8_RWS01_MONIBAS_0101hrr0225ra_1_2" lane="491573232_2" pos="184.15" period="3600.0" file="logs/8_RWS01_MONIBAS_0101hrr0225ra_1_2.xml"/>
    <inductionLoop id="8_RWS01_MONIBAS_0101hrr0225ra_1_3" lane="491573232_3" pos="186.94" period="3600.0" file="logs/8_RWS01_MONIBAS_0101hrr0225ra_1_3.xml"/>
    <inductionLoop id="9_RWS01_MONIBAS_0101hrr0229ra_0" lane="491573232_0" pos="544.02" period="3600.0" file="logs/9_RWS01_MONIBAS_0101hrr0229ra_0.xml"/>
    <inductionLoop id="9_RWS01_MONIBAS_0101hrr0229ra_1" lane="491573232_1" pos="539.85" period="3600.0" file="logs/9_RWS01_MONIBAS_0101hrr0229ra_1.xml"/>
    <inductionLoop id="9_RWS01_MONIBAS_0101hrr0229ra_2" lane="491573232_2" pos="535.83" period="3600.0" file="logs/9_RWS01_MONIBAS_0101hrr0229ra_2.xml"/>
    <inductionLoop id="9_RWS01_MONIBAS_0101hrr0229ra_3" lane="491573232_3" pos="537.91" period="3600.0" file="nul"/>
    <inductionLoop id="10_RWS01_MONIBAS_0101hrr0233ra_0" lane="491574922_0" pos="393.58" period="3600.0" file="logs/10_RWS01_MONIBAS_0101hrr0233ra_0.xml"/>
    <inductionLoop id="10_RWS01_MONIBAS_0101hrr0233ra_1" lane="491574922_1" pos="391.59" period="3600.0" file="logs/10_RWS01_MONIBAS_0101hrr0233ra_1.xml"/>
    <inductionLoop id="10_RWS01_MONIBAS_0101hrr0233ra_2" lane="491574922_2" pos="393.57" period="3600.0" file="logs/10_RWS01_MONIBAS_0101hrr0233ra_2.xml"/>
    <inductionLoop id="11_RWS01_MONIBAS_0101hrr0239ra_0" lane="491586085_0" pos="132.02" period="3600.0" file="nul"/>
    <inductionLoop id="11_RWS01_MONIBAS_0101hrr0239ra_1" lane="491586085_1" pos="128.82" period="3600.0" file="logs/11_RWS01_MONIBAS_0101hrr0239ra_1.xml"/>
    <inductionLoop id="11_RWS01_MONIBAS_0101hrr0239ra_2" lane="491586085_2" pos="125.77" period="3600.0" file="logs/11_RWS01_MONIBAS_0101hrr0239ra_2.xml"/>
    <inductionLoop id="11_RWS01_MONIBAS_0101hrr0239ra_3" lane="491586085_3" pos="128.82" period="3600.0" file="logs/11_RWS01_MONIBAS_0101hrr0239ra_3.xml"/>
    <inductionLoop id="12_RWS01_MONIBAS_0101hrr0244ra_0" lane="491586092_0" pos="13.18" period="3600.0" file="logs/12_RWS01_MONIBAS_0101hrr0244ra_0.xml"/>
    <inductionLoop id="12_RWS01_MONIBAS_0101hrr0244ra_1" lane="491586092_1" pos="11.20" period="3600.0" file="logs/12_RWS01_MONIBAS_0101hrr0244ra_1.xml"/>
    <inductionLoop id="12_RWS01_MONIBAS_0101hrr0244ra_2" lane="491586092_2" pos="13.18" period="3600.0" file="nul"/>
    <inductionLoop id="13_RWS01_MONIBAS_0101hrr0244rb_0" lane="75919472_0" pos="17.23" period="3600.0" file="logs/13_RWS01_MONIBAS_0101hrr0244rb_0.xml"/>
    <inductionLoop id="14_RWS01_MONIBAS_0101hrr0249ra_0" lane="491586092_0" pos="462.44" period="3600.0" file="logs/14_RWS01_MONIBAS_0101hrr0249ra_0.xml"/>
    <inductionLoop id="14_RWS01_MONIBAS_0101hrr0249ra_1" lane="491586092_1" pos="460.61" period="3600.0" file="logs/14_RWS01_MONIBAS_0101hrr0249ra_1.xml"/>
    <inductionLoop id="14_RWS01_MONIBAS_0101hrr0249ra_2" lane="491586092_2" pos="462.75" period="3600.0" file="logs/14_RWS01_MONIBAS_0101hrr0249ra_2.xml"/>
    <inductionLoop id="15_RWS01_MONIBAS_0101hrr0253ra_0" lane="7382650_0" pos="129.45" period="3600.0" file="logs/15_RWS01_MONIBAS_0101hrr0253ra_0.xml"/>
    <inductionLoop id="15_RWS01_MONIBAS_0101hrr0253ra_1" lane="7382650_1" pos="126.48" period="3600.0" file="logs/15_RWS01_MONIBAS_0101hrr0253ra_1.xml"/>
    <inductionLoop id="15_RWS01_MONIBAS_0101hrr0253ra_2" lane="7382650_2" pos="124.56" period="3600.0" file="nul"/>
    <inductionLoop id="15_RWS01_MONIBAS_0101hrr0253ra_3" lane="7382650_3" pos="126.57" period="3600.0" file="logs/15_RWS01_MONIBAS_0101hrr0253ra_3.xml"/>
    <inductionLoop id="16_RWS01_MONIBAS_0101hrr0258ra_0" lane="491586076_0" pos="100.22" period="3600.0" file="nul"/>
    <inductionLoop id="16_RWS01_MONIBAS_0101hrr0258ra_1" lane="491586076_1" pos="100.22" period="3600.0" file="logs/16_RWS01_MONIBAS_0101hrr0258ra_1.xml"/>
    <inductionLoop id="16_RWS01_MONIBAS_0101hrr0258ra_2" lane="491586076_2" pos="100.22" period="3600.0" file="logs/16_RWS01_MONIBAS_0101hrr0258ra_2.xml"/>
    <inductionLoop id="16_RWS01_MONIBAS_0101hrr0258ra_3" lane="491586076_3" pos="100.22" period="3600.0" file="nul"/>
    <inductionLoop id="17_RWS01_MONIBAS_0101hrr0261ra_0" lane="7379509_0" pos="76.96" period="3600.0" file="logs/17_RWS01_MONIBAS_0101hrr0261ra_0.xml"/>
    <inductionLoop id="17_RWS01_MONIBAS_0101hrr0261ra_1" lane="7379509_1" pos="73.93" period="3600.0" file="logs/17_RWS01_MONIBAS_0101hrr0261ra_1.xml"/>
    <inductionLoop id="17_RWS01_MONIBAS_0101hrr0261ra_2" lane="7379509_2" pos="71.91" period="3600.0" file="nul"/>
    <inductionLoop id="17_RWS01_MONIBAS_0101hrr0261ra_3" lane="7379509_3" pos="73.92" period="3600.0" file="logs/17_RWS01_MONIBAS_0101hrr0261ra_3.xml"/>
    <inductionLoop id="18_RWS01_MONIBAS_0101hrr0264ra_0" lane="7379509_0" pos="369.90" period="3600.0" file="nul"/>
    <inductionLoop id="18_RWS01_MONIBAS_0101hrr0264ra_1" lane="7379509_1" pos="366.87" period="3600.0" file="logs/18_RWS01_MONIBAS_0101hrr0264ra_1.xml"/>
    <inductionLoop id="18_RWS01_MONIBAS_0101hrr0264ra_2" lane="7379509_2" pos="364.86" period="3600.0" file="logs/18_RWS01_MONIBAS_0101hrr0264ra_2.xml"/>
    <inductionLoop id="18_RWS01_MONIBAS_0101hrr0264ra_3" lane="7379509_3" pos="366.87" period="3600.0" file="logs/18_RWS01_MONIBAS_0101hrr0264ra_3.xml"/>
    <inductionLoop id="19_RWS01_MONIBAS_0101hrr0267ra_0" lane="491592275_0" pos="183.12" period="3600.0" file="nul"/>
    <inductionLoop id="19_RWS01_MONIBAS_0101hrr0267ra_1" lane="491592275_1" pos="180.27" period="3600.0" file="logs/19_RWS01_MONIBAS_0101hrr0267ra_1.xml"/>
    <inductionLoop id="19_RWS01_MONIBAS_0101hrr0267ra_2" lane="491592275_2" pos="177.86" period="3600.0" file="logs/19_RWS01_MONIBAS_0101hrr0267ra_2.xml"/>
    <inductionLoop id="19_RWS01_MONIBAS_0101hrr0267ra_3" lane="491592275_3" pos="176.74" period="3600.0" file="logs/19_RWS01_MONIBAS_0101hrr0267ra_3.xml"/>
    <inductionLoop id="19_RWS01_MONIBAS_0101hrr0267ra_4" lane="491592275_4" pos="177.88" period="3600.0" file="logs/19_RWS01_MONIBAS_0101hrr0267ra_4.xml"/>
    <inductionLoop id="0_GEO0K_K_RWSTI358815_0" lane="130641962_0" pos="116.38" period="3600.0" file="logs/0_GEO0K_K_RWSTI358815_0.xml"/>
    <inductionLoop id="0_GEO0K_K_RWSTI358815_1" lane="130641962_1" pos="116.38" period="3600.0" file="logs/0_GEO0K_K_RWSTI358815_1.xml"/>
    <inductionLoop id="1_RWS01_MONIBAS_0051hrr0185ra_0" lane="1194755870_0" pos="228.07" period="3600.0" file="logs/1_RWS01_MONIBAS_0051hrr0185ra_0.xml"/>
    <inductionLoop id="1_RWS01_MONIBAS_0051hrr0185ra_1" lane="1194755870_1" pos="228.22" period="3600.0" file="nul"/>
    <inductionLoop id="2_RWS01_MONIBAS_0051hrr0187ra_0" lane="491590645_0" pos="88.96" period="3600.0" file="nul"/>
    <inductionLoop id="2_RWS01_MONIBAS_0051hrr0187ra_1" lane="491590645_1" pos="85.78" period="3600.0" file="logs/2_RWS01_MONIBAS_0051hrr0187ra_1.xml"/>
    <inductionLoop id="2_RWS01_MONIBAS_0051hrr0187ra_2" lane="491590645_2" pos="85.79" period="3600.0" file="nul"/>
    <inductionLoop id="2_RWS01_MONIBAS_0051hrr0187ra_3" lane="491590645_3" pos="88.99" period="3600.0" file="logs/2_RWS01_MONIBAS_0051hrr0187ra_3.xml"/>
    <inductionLoop id="3_RWS01_MONIBAS_0100vwp0276ra_0" lane="293658509_0" pos="83.88" period="3600.0" file="logs/3_RWS01_MONIBAS_0100vwp0276ra_0.xml"/>
    <inductionLoop id="3_RWS01_MONIBAS_0100vwp0276ra_1" lane="293658509_1" pos="82.11" period="3600.0" file="logs/3_RWS01_MONIBAS_0100vwp0276ra_1.xml"/>
    <inductionLoop id="4_RWS01_MONIBAS_0100vwp0281ra_0" lane="1194755870_0" pos="216.12" period="3600.0" file="logs/4_RWS01_MONIBAS_0100vwp0281ra_0.xml"/>
    <inductionLoop id="4_RWS01_MONIBAS_0100vwp0281ra_1" lane="1194755870_1" pos="216.27" period="3600.0" file="logs/4_RWS01_MONIBAS_0100vwp0281ra_1.xml"/>
    <inductionLoop id="5_RWS01_MONIBAS_0100vwp0285ra_0" lane="1194755870_0" pos="633.92" period="3600.0" file="logs/5_RWS01_MONIBAS_0100vwp0285ra_0.xml"/>
    <inductionLoop id="5_RWS01_MONIBAS_0100vwp0285ra_1" lane="1194755870_1" pos="634.33" period="3600.0" file="logs/5_RWS01_MONIBAS_0100vwp0285ra_1.xml"/>
    <inductionLoop id="6_RWS01_MONIBAS_0101hrr0271ra_0" lane="48748939_0" pos="12.44" period="3600.0" file="logs/6_RWS01_MONIBAS_0101hrr0271ra_0.xml"/>
    <inductionLoop id="6_RWS01_MONIBAS_0101hrr0271ra_1" lane="48748939_1" pos="12.49" period="3600.0" file="logs/6_RWS01_MONIBAS_0101hrr0271ra_1.xml"/>
    <inductionLoop id="6_RWS01_MONIBAS_0101hrr0271ra_2" lane="48748939_2" pos="12.47" period="3600.0" file="logs/6_RWS01_MONIBAS_0101hrr0271ra_2.xml"/>
    <inductionLoop id="7_RWS01_MONIBAS_0101hrr0276ra_0" lane="128965109_0" pos="45.71" period="3600.0" file="logs/7_RWS01_MONIBAS_0101hrr0276ra_0.xml"/>
    <inductionLoop id="7_RWS01_MONIBAS_0101hrr0276ra_1" lane="128965109_1" pos="42.63" period="3600.0" file="logs/7_RWS01_MONIBAS_0101hrr0276ra_1.xml"/>
    <inductionLoop id="7_RWS01_MONIBAS_0101hrr0276ra_2" lane="128965109_2" pos="42.75" period="3600.0" file="logs/7_RWS01_MONIBAS_0101hrr0276ra_2.xml"/>
    <inductionLoop id="7_RWS01_MONIBAS_0101hrr0276ra_3" lane="128965109_3" pos="46.03" period="3600.0" file="nul"/>
    <inductionLoop id="8_RWS01_MONIBAS_0101hrr0279ra_0" lane="128965109_0" pos="338.80" period="3600.0" file="logs/8_RWS01_MONIBAS_0101hrr0279ra_0.xml"/>
    <inductionLoop id="8_RWS01_MONIBAS_0101hrr0279ra_1" lane="128965109_1" pos="336.37" period="3600.0" file="logs/8_RWS01_MONIBAS_0101hrr0279ra_1.xml"/>
    <inductionLoop id="8_RWS01_MONIBAS_0101hrr0279ra_2" lane="128965109_2" pos="337.15" period="3600.0" file="logs/8_RWS01_MONIBAS_0101hrr0279ra_2.xml"/>
    <inductionLoop id="8_RWS01_MONIBAS_0101hrr0279ra_3" lane="128965109_3" pos="341.09" period="3600.0" file="nul"/>
    <inductionLoop id="9_RWS01_MONIBAS_0101hrr0281ra_0" lane="128965109_0" pos="553.30" period="3600.0" file="logs/9_RWS01_MONIBAS_0101hrr0281ra_0.xml"/>
    <inductionLoop id="9_RWS01_MONIBAS_0101hrr0281ra_1" lane="128965109_1" pos="551.24" period="3600.0" file="nul"/>
    <inductionLoop id="9_RWS01_MONIBAS_0101hrr0281ra_2" lane="128965109_2" pos="552.37" period="3600.0" file="logs/9_RWS01_MONIBAS_0101hrr0281ra_2.xml"/>
    <inductionLoop id="9_RWS01_MONIBAS_0101hrr0281ra_3" lane="128965109_3" pos="556.67" period="3600.0" file="logs/9_RWS01_MONIBAS_0101hrr0281ra_3.xml"/>
    <inductionLoop id="10_RWS01_MONIBAS_0101hrr0285ra_0" lane="130641962_0" pos="127.55" period="3600.0" file="logs/10_RWS01_MONIBAS_0101hrr0285ra_0.xml"/>
    <inductionLoop id="10_RWS01_MONIBAS_0101hrr0285ra_1" lane="130641962_1" pos="125.28" period="3600.0" file="logs/10_RWS01_MONIBAS_0101hrr0285ra_1.xml"/>
    <inductionLoop id="11_RWS01_MONICA_10D00A04783708200007_0" lane="385736146_0" pos="139.68" period="3600.0" file="logs/11_RWS01_MONICA_10D00A04783708200007_0.xml"/>
    <inductionLoop id="11_RWS01_MONICA_10D00A04783708200007_1" lane="385736146_1" pos="138.54" period="3600.0" file="logs/11_RWS01_MONICA_10D00A04783708200007_1.xml"/>
    <inductionLoop id="12_RWS01_MONICA_10D00A04783708200187_0" lane="385736146_0" pos="139.68" period="3600.0" file="logs/12_RWS01_MONICA_10D00A04783708200187_0.xml"/>
    <inductionLoop id="12_RWS01_MONICA_10D00A04783708200187_1" lane="385736146_1" pos="138.54" period="3600.0" file="logs/12_RWS01_MONICA_10D00A04783708200187_1.xml"/>
    <inductionLoop id="13_RWS01_MONICA_10D00A04783708200307_0" lane="385736146_0" pos="139.68" period="3600.0" file="logs/13_RWS01_MONICA_10D00A04783708200307_0.xml"/>
    <inductionLoop id="13_RWS01_MONICA_10D00A04783708200307_1" lane="385736146_1" pos="138.54" period="3600.0" file="nul"/>
    <inductionLoop id="0_GEO0B_R_RWSTI358958_0" lane="7377857#0_0" pos="132.84" period="3600.0" file="nul"/>
    <inductionLoop id="1_GEO0K_K_RWSTI358937_0" lane="7377781_0" pos="235.00" period="3600.0" file="logs/1_GEO0K_K_RWSTI358937_0.xml"/>
    <inductionLoop id="2_RWS01_MONIBAS_0081hrl0006ra_0" lane="1332838359_0" pos="1408.96" period="3600.0" file="logs/2_RWS01_MONIBAS_0081hrl0006ra_0.xml"/>
    <inductionLoop id="2_RWS01_MONIBAS_0081hrl0006ra_1" lane="1332838359_1" pos="1404.61" period="3600.0" file="logs/2_RWS01_MONIBAS_0081hrl0006ra_1.xml"/>
    <inductionLoop id="3_RWS01_MONIBAS_0081hrr0008ra_0" lane="1093942857_0" pos="172.76" period="3600.0" file="logs/3_RWS01_MONIBAS_0081hrr0008ra_0.xml"/>
    <inductionLoop id="3_RWS01_MONIBAS_0081hrr0008ra_1" lane="1093942857_1" pos="172.23" period="3600.0" file="nul"/>
    <inductionLoop id="4_RWS01_MONIBAS_0100vwp0303ra_1_0" lane="679563338_0" pos="706.92" period="3600.0" file="logs/4_RWS01_MONIBAS_0100vwp0303ra_1_0.xml"/>
    <inductionLoop id="4_RWS01_MONIBAS_0100vwp0303ra_1_1" lane="679563338_1" pos="706.91" period="3600.0" file="logs/4_RWS01_MONIBAS_0100vwp0303ra_1_1.xml"/>
    <inductionLoop id="5_RWS01_MONIBAS_0100vwp0307ra_0" lane="39911405#0_0" pos="285.85" period="3600.0" file="logs/5_RWS01_MONIBAS_0100vwp0307ra_0.xml"/>
    <inductionLoop id="5_RWS01_MONIBAS_0100vwp0307ra_1" lane="39911405#0_1" pos="285.90" period="3600.0" file="logs/5_RWS01_MONIBAS_0100vwp0307ra_1.xml"/>
    <inductionLoop id="6_RWS01_MONIBAS_0101hrr0303ra_0" lane="679563339_0" pos="725.40" period="3600.0" file="nul"/>
    <inductionLoop id="6_RWS01_MONIBAS_0101hrr0303ra_1" lane="679563339_1" pos="722.21" period="3600.0" file="logs/6_RWS01_MONIBAS_0101hrr0303ra_1.xml"/>
    <inductionLoop id="6_RWS01_MONIBAS_0101hrr0303ra_2" lane="679563339_2" pos="722.21" period="3600.0" file="logs/6_RWS01_MONIBAS_0101hrr0303ra_2.xml"/>
    <inductionLoop id="6_RWS01_MONIBAS_0101hrr0303ra_3" lane="679563339_3" pos="725.41" period="3600.0" file="logs/6_RWS01_MONIBAS_0101hrr0303ra_3.xml"/>
    <inductionLoop id="7_RWS01_MONIBAS_0101hrr0305ra_1_0" lane="679563336_0" pos="130.95" period="3600.0" file="nul"/>
    <inductionLoop id="7_RWS01_MONIBAS_0101hrr0305ra_1_1" lane="679563336_1" pos="127.83" period="3600.0" file="logs/7_RWS01_MONIBAS_0101hrr0305ra_1_1.xml"/>
    <inductionLoop id="7_RWS01_MONIBAS_0101hrr0305ra_1_2" lane="679563336_2" pos="127.92" period="3600.0" file="logs/7_RWS01_MONIBAS_0101hrr0305ra_1_2.xml"/>
    <inductionLoop id="7_RWS01_MONIBAS_0101hrr0305ra_1_3" lane="679563336_3" pos="131.20" period="3600.0" file="logs/7_RWS01_MONIBAS_0101hrr0305ra_1_3.xml"/>
    <inductionLoop id="8_RWS01_MONIBAS_0101hrr0308ra_0" lane="39911408#1_0" pos="158.89" period="3600.0" file="logs/8_RWS01_MONIBAS_0101hrr0308ra_0.xml"/>
    <inductionLoop id="8_RWS01_MONIBAS_0101hrr0308ra_1" lane="39911408#1_1" pos="156.15" period="3600.0" file="logs/8_RWS01_MONIBAS_0101hrr0308ra_1.xml"/>
    <inductionLoop id="8_RWS01_MONIBAS_0101hrr0308ra_2" lane="39911408#1_2" pos="153.44" period="3600.0" file="logs/8_RWS01_MONIBAS_0101hrr0308ra_2.xml"/>
    <inductionLoop id="8_RWS01_MONIBAS_0101hrr0308ra_3" lane="39911408#1_3" pos="151.07" period="3600.0" file="logs/8_RWS01_MONIBAS_0101hrr0308ra_3.xml"/>
    <inductionLoop id="8_RWS01_MONIBAS_0101hrr0308ra_4" lane="39911408#1_4" pos="154.38" period="3600.0" file="logs/8_RWS01_MONIBAS_0101hrr0308ra_4.xml"/>
    <inductionLoop id="9_RWS01_MONIBAS_0101hrr0308rb_0" lane="39911408#1_0" pos="158.76" period="3600.0" file="logs/9_RWS01_MONIBAS_0101hrr0308rb_0.xml"/>
    <inductionLoop id="9_RWS01_MONIBAS_0101hrr0308rb_1" lane="39911408#1_1" pos="156.02" period="3600.0" file="logs/9_RWS01_MONIBAS_0101hrr0308rb_1.xml"/>
    <inductionLoop id="9_RWS01_MONIBAS_0101hrr0308rb_2" lane="39911408#1_2" pos="153.31" period="3600.0" file="logs/9_RWS01_MONIBAS_0101hrr0308rb_2.xml"/>
    <inductionLoop id="9_RWS01_MONIBAS_0101hrr0308rb_3" lane="39911408#1_3" pos="150.94" period="3600.0" file="logs/9_RWS01_MONIBAS_0101hrr0308rb_3.xml"/>
    <inductionLoop id="9_RWS01_MONIBAS_0101hrr0308rb_4" lane="39911408#1_4" pos="154.26" period="3600.0" file="nul"/>
    <inductionLoop id="10_RWS01_MONIBAS_0101hrr0312ra_0" lane="7377811_0" pos="77.88" period="3600.0" file="logs/10_RWS01_MONIBAS_0101hrr0312ra_0.xml"/>
    <inductionLoop id="10_RWS01_MONIBAS_0101hrr0312ra_1" lane="7377811_1" pos="75.76" period="3600.0" file="logs/10_RWS01_MONIBAS_0101hrr0312ra_1.xml"/>
    <inductionLoop id="10_RWS01_MONIBAS_0101hrr0312ra_2" lane="7377811_2" pos="75.58" period="3600.0" file="nul"/>
    <inductionLoop id="11_RWS01_MONIBAS_0101hrr0317ra_0" lane="7377791_0" pos="481.51" period="3600.0" file="logs/11_RWS01_MONIBAS_0101hrr0317ra_0.xml"/>
    <inductionLoop id="11_RWS01_MONIBAS_0101hrr0317ra_1" lane="7377791_1" pos="483.27" period="3600.0" file="logs/11_RWS01_MONIBAS_0101hrr0317ra_1.xml"/>
    <inductionLoop id="12_RWS01_MONIBAS_0101hrr0323ra_0" lane="7377853_0" pos="265.25" period="3600.0" file="logs/12_RWS01_MONIBAS_0101hrr0323ra_0.xml"/>
    <inductionLoop id="12_RWS01_MONIBAS_0101hrr0323ra_1" lane="7377853_1" pos="264.50" period="3600.0" file="logs/12_RWS01_MONIBAS_0101hrr0323ra_1.xml"/>
    <inductionLoop id="12_RWS01_MONIBAS_0101hrr0323ra_2" lane="7377853_2" pos="265.99" period="3600.0" file="logs/12_RWS01_MONIBAS_0101hrr0323ra_2.xml"/>
    <inductionLoop id="13_RWS01_MONICA_10D00A04C42DD0070007_0" lane="679563336_0" pos="131.39" period="3600.0" file="logs/13_RWS01_MONICA_10D00A04C42DD0070007_0.xml"/>
    <inductionLoop id="13_RWS01_MONICA_10D00A04C42DD0070007_1" lane="679563336_1" pos="128.28" period="3600.0" file="logs/13_RWS01_MONICA_10D00A04C42DD0070007_1.xml"/>
    <inductionLoop id="13_RWS01_MONICA_10D00A04C42DD0070007_2" lane="679563336_2" pos="128.37" period="3600.0" file="logs/13_RWS01_MONICA_10D00A04C42DD0070007_2.xml"/>
    <inductionLoop id="13_RWS01_MONICA_10D00A04C42DD0070007_3" lane="679563336_3" pos="131.65" period="3600.0" file="logs/13_RWS01_MONICA_10D00A04C42DD0070007_3.xml"/>
    <inductionLoop id="14_RWS01_MONICA_10D00A04C42DD007000B_0" lane="679563336_0" pos="131.39" period="3600.0" file="logs/14_RWS01_MONICA_10D00A04C42DD007000B_0.xml"/>
    <inductionLoop id="14_RWS01_MONICA_10D00A04C42DD007000B_1" lane="679563336_1" pos="128.28" period="3600.0" file="logs/14_RWS01_MONICA_10D00A04C42DD007000B_1.xml"/>
    <inductionLoop id="14_RWS01_MONICA_10D00A04C42DD007000B_2" lane="679563336_2" pos="128.37" period="3600.0" file="logs/14_RWS01_MONICA_10D00A04C42DD007000B_2.xml"/>
    <inductionLoop id="14_RWS01_MONICA_10D00A04C42DD007000B_3" lane="679563336_3" pos="131.65" period="3600.0" file="logs/14_RWS01_MONICA_10D00A04C42DD007000B_3.xml"/>
    <inductionLoop id="15_RWS01_MONICA_10D00A04C42DD007000F_0" lane="679563336_0" pos="131.39" period="3600.0" file="logs/15_RWS01_MONICA_10D00A04C42DD007000F_0.xml"/>
    <inductionLoop id="15_RWS01_MONICA_10D00A04C42DD007000F_1" lane="679563336_1" pos="128.28" period="3600.0" file="logs/15_RWS01_MONICA_10D00A04C42DD007000F_1.xml"/>
    <inductionLoop id="15_RWS01_MONICA_10D00A04C42DD007000F_2" lane="679563336_2" pos="128.37" period="3600.0" file="logs/15_RWS01_MONICA_10D00A04C42DD007000F_2.xml"/>