<routes>
	<trip id="route_E1_A1" depart="0" from="1333532315#0" to="1333532310" />
	<trip id="route_E1_A2" depart="0" from="1333532315#0" to="741760848" />
	<trip id="route_E1_A3" depart="0" from="1333532315#0" to="741640644#0" />
	<trip id="route_E1_A4" depart="0" from="1333532315#0" to="1270857700" />
	<trip id="route_E1_A5" depart="0" from="1333532315#0" to="7385173" />
	<trip id="route_E1_A6" depart="0" from="1333532315#0" to="708026623" />
	<trip id="route_E1_A7" depart="0" from="1333532315#0" to="482265932" />
	<trip id="route_E1_A8" depart="0" from="1333532315#0" to="7051882" />
	<trip id="route_E1_A9" depart="0" from="1333532315#0" to="1266120162" />
	<trip id="route_E1_A10" depart="0" from="1333532315#0" to="7044422" />
	<trip id="route_E1_A11" depart="0" from="1333532315#0" to="1169016518" />
	<trip id="route_E1_A12" depart="0" from="1333532315#0" to="495535095" />
	<trip id="route_E1_A13" depart="0" from="1333532315#0" to="7039949" />
	<trip id="route_E1_A14" depart="0" from="1333532315#0" to="76025454" />
	<trip id="route_E1_A15" depart="0" from="1333532315#0" to="41199724" />
	<trip id="route_E1_A16" depart="0" from="1333532315#0" to="1312974143" />
	<trip id="route_E1_A17" depart="0" from="1333532315#0" to="95596873" />
	<trip id="route_E1_A18" depart="0" from="1333532315#0" to="6595423" />
	<trip id="route_E1_A19" depart="0" from="1333532315#0" to="440995083" />
	<trip id="route_E2_A1" depart="0" from="1020818641" to="1333532310" />
	<trip id="route_E2_A2" depart="0" from="1020818641" to="741760848" />
	<trip id="route_E2_A3" depart="0" from="1020818641" to="741640644#0" />
	<trip id="route_E2_A4" depart="0" from="1020818641" to="1270857700" />
	<trip id="route_E2_A5" depart="0" from="1020818641" to="7385173" />
	<trip id="route_E2_A6" depart="0" from="1020818641" to="708026623" />
	<trip id="route_E2_A7" depart="0" from="1020818641" to="482265932" />
	<trip id="route_E2_A8" depart="0" from="1020818641" to="7051882" />
	<trip id="route_E2_A9" depart="0" from="1020818641" to="1266120162" />
	<trip id="route_E2_A10" depart="0" from="1020818641" to="7044422" />
	<trip id="route_E2_A11" depart="0" from="1020818641" to="1169016518" />
	<trip id="route_E2_A12" depart="0" from="1020818641" to="495535095" />
	<trip id="route_E2_A13" depart="0" from="1020818641" to="7039949" />
	<trip id="route_E2_A14" depart="0" from="1020818641" to="76025454" />
	<trip id="route_E2_A15" depart="0" from="1020818641" to="41199724" />
	<trip id="route_E2_A16" depart="0" from="1020818641" to="1312974143" />
	<trip id="route_E2_A17" depart="0" from="1020818641" to="95596873" />
	<trip id="route_E2_A18" depart="0" from="1020818641" to="6595423" />
	<trip id="route_E2_A19" depart="0" from="1020818641" to="440995083" />
	<trip id="route_E3_A1" depart="0" from="1270110112" to="1333532310" />
	<trip id="route_E3_A2" depart="0" from="1270110112" to="741760848" />
	<trip id="route_E3_A3" depart="0" from="1270110112" to="741640644#0" />
	<trip id="route_E3_A4" depart="0" from="1270110112" to="1270857700" />
	<trip id="route_E3_A5" depart="0" from="1270110112" to="7385173" />
	<trip id="route_E3_A6" depart="0" from="1270110112" to="708026623" />
	<trip id="route_E3_A7" depart="0" from="1270110112" to="482265932" />
	<trip id="route_E3_A8" depart="0" from="1270110112" to="7051882" />
	<trip id="route_E3_A9" depart="0" from="1270110112" to="1266120162" />
	<trip id="route_E3_A10" depart="0" from="1270110112" to="7044422" />
	<trip id="route_E3_A11" depart="0" from="1270110112" to="1169016518" />
	<trip id="route_E3_A12" depart="0" from="1270110112" to="495535095" />
	<trip id="route_E3_A13" depart="0" from="1270110112" to="7039949" />
	<trip id="route_E3_A14" depart="0" from="1270110112" to="76025454" />
	<trip id="route_E3_A15" depart="0" from="1270110112" to="41199724" />
	<trip id="route_E3_A16" depart="0" from="1270110112" to="1312974143" />
	<trip id="route_E3_A17" depart="0" from="1270110112" to="95596873" />
	<trip id="route_E3_A18" depart="0" from="1270110112" to="6595423" />
	<trip id="route_E3_A19" depart="0" from="1270110112" to="440995083" />
	<trip id="route_E4_A1" depart="0" from="7383001" to="1333532310" />
	<trip id="route_E4_A2" depart="0" from="7383001" to="741760848" />
	<trip id="route_E4_A3" depart="0" from="7383001" to="741640644#0" />
	<trip id="route_E4_A4" depart="0" from="7383001" to="1270857700" />
	<trip id="route_E4_A5" depart="0" from="7383001" to="7385173" />
	<trip id="route_E4_A6" depart="0" from="7383001" to="708026623" />
	<trip id="route_E4_A7" depart="0" from="7383001" to="482265932" />
	<trip id="route_E4_A8" depart="0" from="7383001" to="7051882" />
	<trip id="route_E4_A9" depart="0" from="7383001" to="1266120162" />
	<trip id="route_E4_A10" depart="0" from="7383001" to="7044422" />
	<trip id="route_E4_A11" depart="0" from="7383001" to="1169016518" />
	<trip id="route_E4_A12" depart="0" from="7383001" to="495535095" />
	<trip id="route_E4_A13" depart="0" from="7383001" to="7039949" />
	<trip id="route_E4_A14" depart="0" from="7383001" to="76025454" />
	<trip id="route_E4_A15" depart="0" from="7383001" to="41199724" />
	<trip id="route_E4_A16" depart="0" from="7383001" to="1312974143" />
	<trip id="route_E4_A17" depart="0" from="7383001" to="95596873" />
	<trip id="route_E4_A18" depart="0" from="7383001" to="6595423" />
	<trip id="route_E4_A19" depart="0" from="7383001" to="440995083" />
	<trip id="route_E5_A1" depart="0" from="48928934" to="1333532310" />
	<trip id="route_E5_A2" depart="0" from="48928934" to="741760848" />
	<trip id="route_E5_A3" depart="0" from="48928934" to="741640644#0" />
	<trip id="route_E5_A4" depart="0" from="48928934" to="1270857700" />
	<trip id="route_E5_A5" depart="0" from="48928934" to="7385173" />
	<trip id="route_E5_A6" depart="0" from="48928934" to="708026623" />
	<trip id="route_E5_A7" depart="0" from="48928934" to="482265932" />
	<trip id="route_E5_A8" depart="0" from="48928934" to="7051882" />
	<trip id="route_E5_A9" depart="0" from="48928934" to="1266120162" />
	<trip id="route_E5_A10" depart="0" from="48928934" to="7044422" />
	<trip id="route_E5_A11" depart="0" from="48928934" to="1169016518" />
	<trip id="route_E5_A12" depart="0" from="48928934" to="495535095" />
	<trip id="route_E5_A13" depart="0" from="48928934" to="7039949" />
	<trip id="route_E5_A14" depart="0" from="48928934" to="76025454" />
	<trip id="route_E5_A15" depart="0" from="48928934" to="41199724" />
	<trip id="route_E5_A16" depart="0" from="48928934" to="1312974143" />
	<trip id="route_E5_A17" depart="0" from="48928934" to="95596873" />
	<trip id="route_E5_A18" depart="0" from="48928934" to="6595423" />
	<trip id="route_E5_A19" depart="0" from="48928934" to="440995083" />
	<trip id="route_E6_A1" depart="0" from="822598790" to="1333532310" />
	<trip id="route_E6_A2" depart="0" from="822598790" to="741760848" />
	<trip id="route_E6_A3" depart="0" from="822598790" to="741640644#0" />
	<trip id="route_E6_A4" depart="0" from="822598790" to="1270857700" />
	<trip id="route_E6_A5" depart="0" from="822598790" to="7385173" />
	<trip id="route_E6_A6" depart="0" from="822598790" to="708026623" />
	<trip id="route_E6_A7" depart="0" from="822598790" to="482265932" />
	<trip id="route_E6_A8" depart="0" from="822598790" to="7051882" />
	<trip id="route_E6_A9" depart="0" from="822598790" to="1266120162" />
	<trip id="route_E6_A10" depart="0" from="822598790" to="7044422" />
	<trip id="route_E6_A11" depart="0" from="822598790" to="1169016518" />
	<trip id="route_E6_A12" depart="0" from="822598790" to="495535095" />
	<trip id="route_E6_A13" depart="0" from="822598790" to="7039949" />
	<trip id="route_E6_A14" depart="0" from="822598790" to="76025454" />
	<trip id="route_E6_A15" depart="0" from="822598790" to="41199724" />
	<trip id="route_E6_A16" depart="0" from="822598790" to="1312974143" />
	<trip id="route_E6_A17" depart="0" from="822598790" to="95596873" />
	<trip id="route_E6_A18" depart="0" from="822598790" to="6595423" />
	<trip id="route_E6_A19" depart="0" from="822598790" to="440995083" />
	<trip id="route_E7_A1" depart="0" from="272320487" to="1333532310" />
	<trip id="route_E7_A2" depart="0" from="272320487" to="741760848" />
	<trip id="route_E7_A3" depart="0" from="272320487" to="741640644#0" />
	<trip id="route_E7_A4" depart="0" from="272320487" to="1270857700" />
	<trip id="route_E7_A5" depart="0" from="272320487" to="7385173" />
	<trip id="route_E7_A6" depart="0" from="272320487" to="708026623" />
	<trip id="route_E7_A7" depart="0" from="272320487" to="482265932" />
	<trip id="route_E7_A8" depart="0" from="272320487" to="7051882" />
	<trip id="route_E7_A9" depart="0" from="272320487" to="1266120162" />
	<trip id="route_E7_A10" depart="0" from="272320487" to="7044422" />
	<trip id="route_E7_A11" depart="0" from="272320487" to="1169016518" />
	<trip id="route_E7_A12" depart="0" from="272320487" to="495535095" />
	<trip id="route_E7_A13" depart="0" from="272320487" to="7039949" />
	<trip id="route_E7_A14" depart="0" from="272320487" to="76025454" />
	<trip id="route_E7_A15" depart="0" from="272320487" to="41199724" />
	<trip id="route_E7_A16" depart="0" from="272320487" to="1312974143" />
	<trip id="route_E7_A17" depart="0" from="272320487" to="95596873" />
	<trip id="route_E7_A18" depart="0" from="272320487" to="6595423" />
	<trip id="route_E7_A19" depart="0" from="272320487" to="440995083" />
	<trip id="route_E8_A1" depart="0" from="1223241455" to="1333532310" />
	<trip id="route_E8_A2" depart="0" from="1223241455" to="741760848" />
	<trip id="route_E8_A3" depart="0" from="1223241455" to="741640644#0" />
	<trip id="route_E8_A4" depart="0" from="1223241455" to="1270857700" />
	<trip id="route_E8_A5" depart="0" from="1223241455" to="7385173" />
	<trip id="route_E8_A6" depart="0" from="1223241455" to="708026623" />
	<trip id="route_E8_A7" depart="0" from="1223241455" to="482265932" />
	<trip id="route_E8_A8" depart="0" from="1223241455" to="7051882" />
	<trip id="route_E8_A9" depart="0" from="1223241455" to="1266120162" />
	<trip id="route_E8_A10" depart="0" from="1223241455" to="7044422" />
	<trip id="route_E8_A11" depart="0" from="1223241455" to="1169016518" />
	<trip id="route_E8_A12" depart="0" from="1223241455" to="495535095" />
	<trip id="route_E8_A13" depart="0" from="1223241455" to="7039949" />
	<trip id="route_E8_A14" depart="0" from="1223241455" to="76025454" />
	<trip id="route_E8_A15" depart="0" from="1223241455" to="41199724" />
	<trip id="route_E8_A16" depart="0" from="1223241455" to="1312974143" />
	<trip id="route_E8_A17" depart="0" from="1223241455" to="95596873" />
	<trip id="route_E8_A18" depart="0" from="1223241455" to="6595423" />
	<trip id="route_E8_A19" depart="0" from="1223241455" to="440995083" />
	<trip id="route_E9_A1" depart="0" from="1134668929" to="1333532310" />
	<trip id="route_E9_A2" depart="0" from="1134668929" to="741760848" />
	<trip id="route_E9_A3" depart="0" from="1134668929" to="741640644#0" />
	<trip id="route_E9_A4" depart="0" from="1134668929" to="1270857700" />
	<trip id="route_E9_A5" depart="0" from="1134668929" to="7385173" />
	<trip id="route_E9_A6" depart="0" from="1134668929" to="708026623" />
	<trip id="route_E9_A7" depart="0" from="1134668929" to="482265932" />
	<trip id="route_E9_A8" depart="0" from="1134668929" to="7051882" />
	<trip id="route_E9_A9" depart="0" from="1134668929" to="1266120162" />
	<trip id="route_E9_A10" depart="0" from="1134668929" to="7044422" />
	<trip id="route_E9_A11" depart="0" from="1134668929" to="1169016518" />
	<trip id="route_E9_A12" depart="0" from="1134668929" to="495535095" />
	<trip id="route_E9_A13" depart="0" from="1134668929" to="7039949" />
	<trip id="route_E9_A14" depart="0" from="1134668929" to="76025454" />
	<trip id="route_E9_A15" depart="0" from="1134668929" to="41199724" />
	<trip id="route_E9_A16" depart="0" from="1134668929" to="1312974143" />
	<trip id="route_E9_A17" depart="0" from="1134668929" to="95596873" />
	<trip id="route_E9_A18" depart="0" from="1134668929" to="6595423" />
	<trip id="route_E9_A19" depart="0" from="1134668929" to="440995083" />
	<trip id="route_E10_A1" depart="0" from="761458306" to="1333532310" />
	<trip id="route_E10_A2" depart="0" from="761458306" to="741760848" />
	<trip id="route_E10_A3" depart="0" from="761458306" to="741640644#0" />
	<trip id="route_E10_A4" depart="0" from="761458306" to="1270857700" />
	<trip id="route_E10_A5" depart="0" from="761458306" to="7385173" />
	<trip id="route_E10_A6" depart="0" from="761458306" to="708026623" />
	<trip id="route_E10_A7" depart="0" from="761458306" to="482265932" />
	<trip id="route_E10_A8" depart="0" from="761458306" to="7051882" />
	<trip id="route_E10_A9" depart="0" from="761458306" to="1266120162" />
	<trip id="route_E10_A10" depart="0" from="761458306" to="7044422" />
	<trip id="route_E10_A11" depart="0" from="761458306" to="1169016518" />
	<trip id="route_E10_A12" depart="0" from="761458306" to="495535095" />
	<trip id="route_E10_A13" depart="0" from="761458306" to="7039949" />
	<trip id="route_E10_A14" depart="0" from="761458306" to="76025454" />
	<trip id="route_E10_A15" depart="0" from="761458306" to="41199724" />
	<trip id="route_E10_A16" depart="0" from="761458306" to="1312974143" />
	<trip id="route_E10_A17" depart="0" from="761458306" to="95596873" />
	<trip id="route_E10_A18" depart="0" from="761458306" to="6595423" />
	<trip id="route_E10_A19" depart="0" from="761458306" to="440995083" />
	<trip id="route_E11_A1" depart="0" from="445233140" to="1333532310" />
	<trip id="route_E11_A2" depart="0" from="445233140" to="741760848" />
	<trip id="route_E11_A3" depart="0" from="445233140" to="741640644#0" />
	<trip id="route_E11_A4" depart="0" from="445233140" to="1270857700" />
	<trip id="route_E11_A5" depart="0" from="445233140" to="7385173" />
	<trip id="route_E11_A6" depart="0" from="445233140" to="708026623" />
	<trip id="route_E11_A7" depart="0" from="445233140" to="482265932" />
	<trip id="route_E11_A8" depart="0" from="445233140" to="7051882" />
	<trip id="route_E11_A9" depart="0" from="445233140" to="1266120162" />
	<trip id="route_E11_A10" depart="0" from="445233140" to="7044422" />
	<trip id="route_E11_A11" depart="0" from="445233140" to="1169016518" />
	<trip id="route_E11_A12" depart="0" from="445233140" to="495535095" />
	<trip id="route_E11_A13" depart="0" from="445233140" to="7039949" />
	<trip id="route_E11_A14" depart="0" from="445233140" to="76025454" />
	<trip id="route_E11_A15" depart="0" from="445233140" to="41199724" />
	<trip id="route_E11_A16" depart="0" from="445233140" to="1312974143" />
	<trip id="route_E11_A17" depart="0" from="445233140" to="95596873" />
	<trip id="route_E11_A18" depart="0" from="445233140" to="6595423" />
	<trip id="route_E11_A19" depart="0" from="445233140" to="440995083" />
	<trip id="route_E12_A1" depart="0" from="46610979#0" to="1333532310" />
	<trip id="route_E12_A2" depart="0" from="46610979#0" to="741760848" />
	<trip id="route_E12_A3" depart="0" from="46610979#0" to="741640644#0" />
	<trip id="route_E12_A4" depart="0" from="46610979#0" to="1270857700" />
	<trip id="route_E12_A5" depart="0" from="46610979#0" to="7385173" />
	<trip id="route_E12_A6" depart="0" from="46610979#0" to="708026623" />
	<trip id="route_E12_A7" depart="0" from="46610979#0" to="482265932" />
	<trip id="route_E12_A8" depart="0" from="46610979#0" to="7051882" />
	<trip id="route_E12_A9" depart="0" from="46610979#0" to="1266120162" />
	<trip id="route_E12_A10" depart="0" from="46610979#0" to="7044422" />
	<trip id="route_E12_A11" depart="0" from="46610979#0" to="1169016518" />
	<trip id="route_E12_A12" depart="0" from="46610979#0" to="495535095" />
	<trip id="route_E12_A13" depart="0" from="46610979#0" to="7039949" />
	<trip id="route_E12_A14" depart="0" from="46610979#0" to="76025454" />
	<trip id="route_E12_A15" depart="0" from="46610979#0" to="41199724" />
	<trip id="route_E12_A16" depart="0" from="46610979#0" to="1312974143" />
	<trip id="route_E12_A17" depart="0" from="46610979#0" to="95596873" />
	<trip id="route_E12_A18" depart="0" from="46610979#0" to="6595423" />
	<trip id="route_E12_A19" depart="0" from="46610979#0" to="440995083" />
	<trip id="route_E13_A1" depart="0" from="378604462" to="1333532310" />
	<trip id="route_E13_A2" depart="0" from="378604462" to="741760848" />
	<trip id="route_E13_A3" depart="0" from="378604462" to="741640644#0" />
	<trip id="route_E13_A4" depart="0" from="378604462" to="1270857700" />
	<trip id="route_E13_A5" depart="0" from="378604462" to="7385173" />
	<trip id="route_E13_A6" depart="0" from="378604462" to="708026623" />
	<trip id="route_E13_A7" depart="0" from="378604462" to="482265932" />
	<trip id="route_E13_A8" depart="0" from="378604462" to="7051882" />
	<trip id="route_E13_A9" depart="0" from="378604462" to="1266120162" />
	<trip id="route_E13_A10" depart="0" from="378604462" to="7044422" />
	<trip id="route_E13_A11" depart="0" from="378604462" to="1169016518" />
	<trip id="route_E13_A12" depart="0" from="378604462" to="495535095" />
	<trip id="route_E13_A13" depart="0" from="378604462" to="7039949" />
	<trip id="route_E13_A14" depart="0" from="378604462" to="76025454" />
	<trip id="route_E13_A15" depart="0" from="378604462" to="41199724" />
	<trip id="route_E13_A16" depart="0" from="378604462" to="1312974143" />
	<trip id="route_E13_A17" depart="0" from="378604462" to="95596873" />
	<trip id="route_E13_A18" depart="0" from="378604462" to="6595423" />
	<trip id="route_E13_A19" depart="0" from="378604462" to="440995083" />
	<trip id="route_E14_A1" depart="0" from="189197603" to="1333532310" />
	<trip id="route_E14_A2" depart="0" from="189197603" to="741760848" />
	<trip id="route_E14_A3" depart="0" from="189197603" to="741640644#0" />
	<trip id="route_E14_A4" depart="0" from="189197603" to="1270857700" />
	<trip id="route_E14_A5" depart="0" from="189197603" to="7385173" />
	<trip id="route_E14_A6" depart="0" from="189197603" to="708026623" />
	<trip id="route_E14_A7" depart="0" from="189197603" to="482265932" />
	<trip id="route_E14_A8" depart="0" from="189197603" to="7051882" />
	<trip id="route_E14_A9" depart="0" from="189197603" to="1266120162" />
	<trip id="route_E14_A10" depart="0" from="189197603" to="7044422" />
	<trip id="route_E14_A11" depart="0" from="189197603" to="1169016518" />
	<trip id="route_E14_A12" depart="0" from="189197603" to="495535095" />
	<trip id="route_E14_A13" depart="0" from="189197603" to="7039949" />
	<trip id="route_E14_A14" depart="0" from="189197603" to="76025454" />
	<trip id="route_E14_A15" depart="0" from="189197603" to="41199724" />
	<trip id="route_E14_A16" depart="0" from="189197603" to="1312974143" />
	<trip id="route_E14_A17" depart="0" from="189197603" to="95596873" />
	<trip id="route_E14_A18" depart="0" from="189197603" to="6595423" />
	<trip id="route_E14_A19" depart="0" from="189197603" to="440995083" />
	<trip id="route_E15_A1" depart="0" from="46590568#0" to="1333532310" />
	<trip id="route_E15_A2" depart="0" from="46590568#0" to="741760848" />
	<trip id="route_E15_A3" depart="0" from="46590568#0" to="741640644#0" />
	<trip id="route_E15_A4" depart="0" from="46590568#0" to="1270857700" />
	<trip id="route_E15_A5" depart="0" from="46590568#0" to="7385173" />
	<trip id="route_E15_A6" depart="0" from="46590568#0" to="708026623" />
	<trip id="route_E15_A7" depart="0" from="46590568#0" to="482265932" />
	<trip id="route_E15_A8" depart="0" from="46590568#0" to="7051882" />
	<trip id="route_E15_A9" depart="0" from="46590568#0" to="1266120162" />
	<trip id="route_E15_A10" depart="0" from="46590568#0" to="7044422" />
	<trip id="route_E15_A11" depart="0" from="46590568#0" to="1169016518" />
	<trip id="route_E15_A12" depart="0" from="46590568#0" to="495535095" />
	<trip id="route_E15_A13" depart="0" from="46590568#0" to="7039949" />
	<trip id="route_E15_A14" depart="0" from="46590568#0" to="76025454" />
	<trip id="route_E15_A15" depart="0" from="46590568#0" to="41199724" />
	<trip id="route_E15_A16" depart="0" from="46590568#0" to="1312974143" />
	<trip id="route_E15_A17" depart="0" from="46590568#0" to="95596873" />
	<trip id="route_E15_A18" depart="0" from="46590568#0" to="6595423" />
	<trip id="route_E15_A19" depart="0" from="46590568#0" to="440995083" />
	<trip id="route_E16_A1" depart="0" from="7042499" to="1333532310" />
	<trip id="route_E16_A2" depart="0" from="7042499" to="741760848" />
	<trip id="route_E16_A3" depart="0" from="7042499" to="741640644#0" />
	<trip id="route_E16_A4" depart="0" from="7042499" to="1270857700" />
	<trip id="route_E16_A5" depart="0" from="7042499" to="7385173" />
	<trip id="route_E16_A6" depart="0" from="7042499" to="708026623" />
	<trip id="route_E16_A7" depart="0" from="7042499" to="482265932" />
	<trip id="route_E16_A8" depart="0" from="7042499" to="7051882" />
	<trip id="route_E16_A9" depart="0" from="7042499" to="1266120162" />
	<trip id="route_E16_A10" depart="0" from="7042499" to="7044422" />
	<trip id="route_E16_A11" depart="0" from="7042499" to="1169016518" />
	<trip id="route_E16_A12" depart="0" from="7042499" to="495535095" />
	<trip id="route_E16_A13" depart="0" from="7042499" to="7039949" />
	<trip id="route_E16_A14" depart="0" from="7042499" to="76025454" />
	<trip id="route_E16_A15" depart="0" from="7042499" to="41199724" />
	<trip id="route_E16_A16" depart="0" from="7042499" to="1312974143" />
	<trip id="route_E16_A17" depart="0" from="7042499" to="95596873" />
	<trip id="route_E16_A18" depart="0" from="7042499" to="6595423" />
	<trip id="route_E16_A19" depart="0" from="7042499" to="440995083" />
	<trip id="route_E17_A1" depart="0" from="7376550#0" to="1333532310" />
	<trip id="route_E17_A2" depart="0" from="7376550#0" to="741760848" />
	<trip id="route_E17_A3" depart="0" from="7376550#0" to="741640644#0" />
	<trip id="route_E17_A4" depart="0" from="7376550#0" to="1270857700" />
	<trip id="route_E17_A5" depart="0" from="7376550#0" to="7385173" />
	<trip id="route_E17_A6" depart="0" from="7376550#0" to="708026623" />
	<trip id="route_E17_A7" depart="0" from="7376550#0" to="482265932" />
	<trip id="route_E17_A8" depart="0" from="7376550#0" to="7051882" />
	<trip id="route_E17_A9" depart="0" from="7376550#0" to="1266120162" />
	<trip id="route_E17_A10" depart="0" from="7376550#0" to="7044422" />
	<trip id="route_E17_A11" depart="0" from="7376550#0" to="1169016518" />
	<trip id="route_E17_A12" depart="0" from="7376550#0" to="495535095" />
	<trip id="route_E17_A13" depart="0" from="7376550#0" to="7039949" />
	<trip id="route_E17_A14" depart="0" from="7376550#0" to="76025454" />
	<trip id="route_E17_A15" depart="0" from="7376550#0" to="41199724" />
	<trip id="route_E17_A16" depart="0" from="7376550#0" to="1312974143" />
	<trip id="route_E17_A17" depart="0" from="7376550#0" to="95596873" />
	<trip id="route_E17_A18" depart="0" from="7376550#0" to="6595423" />
	<trip id="route_E17_A19" depart="0" from="7376550#0" to="440995083" />
	<trip id="route_E18_A1" depart="0" from="139186363" to="1333532310" />
	<trip id="route_E18_A2" depart="0" from="139186363" to="741760848" />
	<trip id="route_E18_A3" depart="0" from="139186363" to="741640644#0" />
	<trip id="route_E18_A4" depart="0" from="139186363" to="1270857700" />
	<trip id="route_E18_A5" depart="0" from="139186363" to="7385173" />
	<trip id="route_E18_A6" depart="0" from="139186363" to="708026623" />
	<trip id="route_E18_A7" depart="0" from="139186363" to="482265932" />
	<trip id="route_E18_A8" depart="0" from="139186363" to="7051882" />
	<trip id="route_E18_A9" depart="0" from="139186363" to="1266120162" />
	<trip id="route_E18_A10" depart="0" from="139186363" to="7044422" />
	<trip id="route_E18_A11" depart="0" from="139186363" to="1169016518" />
	<trip id="route_E18_A12" depart="0" from="139186363" to="495535095" />
	<trip id="route_E18_A13" depart="0" from="139186363" to="7039949" />
	<trip id="route_E18_A14" depart="0" from="139186363" to="76025454" />
	<trip id="route_E18_A15" depart="0" from="139186363" to="41199724" />
	<trip id="route_E18_A16" depart="0" from="139186363" to="1312974143" />
	<trip id="route_E18_A17" depart="0" from="139186363" to="95596873" />
	<trip id="route_E18_A18" depart="0" from="139186363" to="6595423" />
	<trip id="route_E18_A19" depart="0" from="139186363" to="440995083" />
	<trip id="route_E19_A1" depart="0" from="440995082" to="1333532310" />
	<trip id="route_E19_A2" depart="0" from="440995082" to="741760848" />
	<trip id="route_E19_A3" depart="0" from="440995082" to="741640644#0" />
	<trip id="route_E19_A4" depart="0" from="440995082" to="1270857700" />
	<trip id="route_E19_A5" depart="0" from="440995082" to="7385173" />
	<trip id="route_E19_A6" depart="0" from="440995082" to="708026623" />
	<trip id="route_E19_A7" depart="0" from="440995082" to="482265932" />
	<trip id="route_E19_A8" depart="0" from="440995082" to="7051882" />
	<trip id="route_E19_A9" depart="0" from="440995082" to="1266120162" />
	<trip id="route_E19_A10" depart="0" from="440995082" to="7044422" />
	<trip id="route_E19_A11" depart="0" from="440995082" to="1169016518" />
	<trip id="route_E19_A12" depart="0" from="440995082" to="495535095" />
	<trip id="route_E19_A13" depart="0" from="440995082" to="7039949" />
	<trip id="route_E19_A14" depart="0" from="440995082" to="76025454" />
	<trip id="route_E19_A15" depart="0" from="440995082" to="41199724" />
	<trip id="route_E19_A16" depart="0" from="440995082" to="1312974143" />
	<trip id="route_E19_A17" depart="0" from="440995082" to="95596873" />
	<trip id="route_E19_A18" depart="0" from="440995082" to="6595423" />
	<trip id="route_E19_A19" depart="0" from="440995082" to="440995083" />
</routes>
