<?xml version="1.0" encoding="UTF-8"?>
<routes xmlns:xsi="http://www.w3.org/2001/XMLSchema-instance" xsi:noNamespaceSchemaLocation="http://sumo.dlr.de/xsd/routes_file.xsd">
	<!-- Routes -->
	<route id="route_E1_A1" edges="1333532315#0 807800750 75919470 7379526 7379536 7379547 7379544 7379537 491586073 7382664 491586101 491586100 1020896904 7382984 7382978 7382977 1269325982 491573234 7381819 1269325979 7381806#0-AddedOnRampEdge 7381806#0 7381806#1 1359663064 7381745 1359663067 1359663075 1359663076 7375161 1093953831 495530118 495530119 1223241460 7370151 7370160 1359663063 1359663062 7368857 910069419 910069418 87949238 7046916 27381173 495532166 7044421 7044782 7044098 7044073 495535096 1354663630 7045329 495536084 7039973 866749025 7039960#0 7039960#1 7039964 76025453 1017357983 7041282 495536525 495536526 7041917 7042490 651227231 495537086 7376547 7376551 7376760 7377786 39911403 7377832 221380396 491590642#1 293658314 293658315 491590647 491573244 75919471 1333532307 1333532310"/>
	<route id="route_E1_A2" edges="1333532315#0 807800750 75919470 7379526 7379536 7379547 7379544 7379537 491586073 1269325989 1092980863 1092980862 7382656#0 7382656#2 741760849 741760848"/>
	<route id="route_E1_A3" edges="1333532315#0 807800750 75919470 7379526 7379536 7379547 7379544 7379537 491586073 7382664 491586101 491586100 1020896904 1269325986 798504998 7382998 741640644#0"/>
	<route id="route_E1_A4" edges="1333532315#0 807800750 75919470 7379526 7379536 7379547 7379544 7379537 491586073 7382664 491586101 491586100 1020896904 7382984 7382978 7382977 1269325982 491573234 1269325981 7381747 1270857700"/>
	<route id="route_E1_A5" edges="1333532315#0 807800750 75919470 7379526 7379536 7379547 7379544 7379537 491586073 7382664 491586101 491586100 1020896904 7382984 7382978 7382977 1269325982 491573234 7381819 1269325980 26956987 7385173"/>
	<route id="route_E1_A6" edges="1333532315#0 807800750 75919470 7379526 7379536 7379547 7379544 7379537 491586073 7382664 491586101 491586100 1020896904 7382984 7382978 7382977 1269325982 491573234 7381819 1269325979 7381806#0-AddedOnRampEdge 7381806#0 7381806#1 1359663064 7381745 1359663067 1359663075 1188637435 680074583#0 708026623"/>
	<route id="route_E1_A7" edges="1333532315#0 807800750 75919470 7379526 7379536 7379547 7379544 7379537 491586073 7382664 491586101 491586100 1020896904 7382984 7382978 7382977 1269325982 491573234 7381819 1269325979 7381806#0-AddedOnRampEdge 7381806#0 7381806#1 1359663064 7381745 1359663067 1359663075 1359663076 7375161 1093953831 495530118 495530119 1223241460 75028175 482265932"/>
	<route id="route_E1_A8" edges="1333532315#0 807800750 75919470 7379526 7379536 7379547 7379544 7379537 491586073 7382664 491586101 491586100 1020896904 7382984 7382978 7382977 1269325982 491573234 7381819 1269325979 7381806#0-AddedOnRampEdge 7381806#0 7381806#1 1359663064 7381745 1359663067 1359663075 1359663076 7375161 1093953831 495530118 495530119 1223241460 7370151 7370160 1359663063 1359663062 7361678 7361666 79355806 7051882"/>
	<route id="route_E1_A9" edges="1333532315#0 807800750 75919470 7379526 7379536 7379547 7379544 7379537 491586073 7382664 491586101 491586100 1020896904 7382984 7382978 7382977 1269325982 491573234 7381819 1269325979 7381806#0-AddedOnRampEdge 7381806#0 7381806#1 1359663064 7381745 1359663067 1359663075 1359663076 7375161 1093953831 495530118 495530119 1223241460 7370151 7370160 1359663063 1359663062 7368857 910069419 910069418 87949238 1266120162"/>
	<route id="route_E1_A10" edges="1333532315#0 807800750 75919470 7379526 7379536 7379547 7379544 7379537 491586073 7382664 491586101 491586100 1020896904 7382984 7382978 7382977 1269325982 491573234 7381819 1269325979 7381806#0-AddedOnRampEdge 7381806#0 7381806#1 1359663064 7381745 1359663067 1359663075 1359663076 7375161 1093953831 495530118 495530119 1223241460 7370151 7370160 1359663063 1359663062 7368857 910069419 910069418 87949238 7046916 27381173 495532166 7044422"/>
	<route id="route_E1_A11" edges="1333532315#0 807800750 75919470 7379526 7379536 7379547 7379544 7379537 491586073 7382664 491586101 491586100 1020896904 7382984 7382978 7382977 1269325982 491573234 7381819 1269325979 7381806#0-AddedOnRampEdge 7381806#0 7381806#1 1359663064 7381745 1359663067 1359663075 1359663076 7375161 1093953831 495530118 495530119 1223241460 7370151 7370160 1359663063 1359663062 7368857 910069419 910069418 87949238 7046916 27381173 495532166 7044421 7044782 761331609 1169016518"/>
	<route id="route_E1_A12" edges="1333532315#0 807800750 75919470 7379526 7379536 7379547 7379544 7379537 491586073 7382664 491586101 491586100 1020896904 7382984 7382978 7382977 1269325982 491573234 7381819 1269325979 7381806#0-AddedOnRampEdge 7381806#0 7381806#1 1359663064 7381745 1359663067 1359663075 1359663076 7375161 1093953831 495530118 495530119 1223241460 7370151 7370160 1359663063 1359663062 7368857 910069419 910069418 87949238 7046916 27381173 495532166 7044421 7044782 7044098 7044073 495535096 1354663631 7044074 7040607 495535095"/>
	<route id="route_E1_A13" edges="1333532315#0 807800750 75919470 7379526 7379536 7379547 7379544 7379537 491586073 7382664 491586101 491586100 1020896904 7382984 7382978 7382977 1269325982 491573234 7381819 1269325979 7381806#0-AddedOnRampEdge 7381806#0 7381806#1 1359663064 7381745 1359663067 1359663075 1359663076 7375161 1093953831 495530118 495530119 1223241460 7370151 7370160 1359663063 1359663062 7368857 910069419 910069418 87949238 7046916 27381173 495532166 7044421 7044782 7044098 7044073 495535096 1354663630 7045329 495536084 7039977 7039949"/>
	<route id="route_E1_A14" edges="1333532315#0 807800750 75919470 7379526 7379536 7379547 7379544 7379537 491586073 7382664 491586101 491586100 1020896904 7382984 7382978 7382977 1269325982 491573234 7381819 1269325979 7381806#0-AddedOnRampEdge 7381806#0 7381806#1 1359663064 7381745 1359663067 1359663075 1359663076 7375161 1093953831 495530118 495530119 1223241460 7370151 7370160 1359663063 1359663062 7368857 910069419 910069418 87949238 7046916 27381173 495532166 7044421 7044782 7044098 7044073 495535096 1354663630 7045329 495536084 7039973 866749025 7039960#0 7039960#1 7039964 76025454"/>
	<route id="route_E1_A15" edges="1333532315#0 807800750 75919470 7379526 7379536 7379547 7379544 7379537 491586073 7382664 491586101 491586100 1020896904 7382984 7382978 7382977 1269325982 491573234 7381819 1269325979 7381806#0-AddedOnRampEdge 7381806#0 7381806#1 1359663064 7381745 1359663067 1359663075 1359663076 7375161 1093953831 495530118 495530119 1223241460 7370151 7370160 1359663063 1359663062 7368857 910069419 910069418 87949238 7046916 27381173 495532166 7044421 7044782 7044098 7044073 495535096 1354663630 7045329 495536084 7039973 866749025 7039960#0 7039960#1 7039964 76025453 1017357983 7041282 495536525 495536526 7041920 1275354108 1275354109 41199724"/>
	<route id="route_E1_A16" edges="1333532315#0 807800750 75919470 7379526 7379536 7379547 7379544 7379537 491586073 7382664 491586101 491586100 1020896904 7382984 7382978 7382977 1269325982 491573234 7381819 1269325979 7381806#0-AddedOnRampEdge 7381806#0 7381806#1 1359663064 7381745 1359663067 1359663075 1359663076 7375161 1093953831 495530118 495530119 1223241460 7370151 7370160 1359663063 1359663062 7368857 910069419 910069418 87949238 7046916 27381173 495532166 7044421 7044782 7044098 7044073 495535096 1354663630 7045329 495536084 7039973 866749025 7039960#0 7039960#1 7039964 76025453 1017357983 7041282 495536525 495536526 7041917 7042490 651227231 495537086 7376546 1312974143"/>
	<route id="route_E1_A17" edges="1333532315#0 807800750 75919470 7379526 7379536 7379547 7379544 7379537 491586073 7382664 491586101 491586100 1020896904 7382984 7382978 7382977 1269325982 491573234 7381819 1269325979 7381806#0-AddedOnRampEdge 7381806#0 7381806#1 1359663064 7381745 1359663067 1359663075 1359663076 7375161 1093953831 495530118 495530119 1223241460 7370151 7370160 1359663063 1359663062 7368857 910069419 910069418 87949238 7046916 27381173 495532166 7044421 7044782 7044098 7044073 495535096 1354663630 7045329 495536084 7039973 866749025 7039960#0 7039960#1 7039964 76025453 1017357983 7041282 495536525 495536526 7041917 7042490 651227231 495537086 7376547 7376551 7376762 494761747 75925534 7377866 95596873"/>
	<route id="route_E1_A18" edges="1333532315#0 807800750 75919470 7379526 7379536 7379547 7379544 7379537 491586073 1269325989 1092980863 1092980862 7382656#0 7382656#2 741646133#0 7382618 35217026#0 741646123#0 7382662#0 7382662#1 7382662#1-AddedOffRampEdge 7382654#0 7382650 1092346866 491586076 217164331 7379509 491592275 75919461 491590649 1332839356 1332839357 130641964 1194755869 1194755870 859704531 593062896 221205614 7379192#2 679563338 39911405#0 221378827 7377836 6595423"/>
	<route id="route_E1_A19" edges="1333532315#0 807800750 75919470 7379526 7379536 7379547 7379544 7379537 491586073 7382664 491586101 491586100 1020896904 7382984 7382978 7382977 1269325982 491573234 7381819 1269325979 7381806#0-AddedOnRampEdge 7381806#0 7381806#1 1359663064 7381745 1359663067 1359663075 1359663076 7375161 1093953831 495530118 495530119 1223241460 7370151 7370160 1359663063 1359663062 7368857 910069419 910069418 87949238 7046916 27381173 495532166 7044421 7044782 7044098 7044073 495535096 1354663630 7045329 495536084 7039973 866749025 7039960#0 7039960#1 7039964 76025453 1017357983 7041282 495536525 495536526 7041917 7042490 651227231 495537086 7376547 7376551 7376760 7377786 293657146 123379291 123379293 1092348212#0 1092348213#0 1092348213#1 7377831 7379864 491590641#0 491590641#1 491590641#2 440995083"/>
	<route id="route_E2_A1" edges="1020818641 440995085 7379536 7379547 7379544 7379537 491586073 7382664 491586101 491586100 1020896904 7382984 7382978 7382977 1269325982 491573234 7381819 1269325979 7381806#0-AddedOnRampEdge 7381806#0 7381806#1 1359663064 7381745 1359663067 1359663075 1359663076 7375161 1093953831 495530118 495530119 1223241460 7370151 7370160 1359663063 1359663062 7368857 910069419 910069418 87949238 7046916 27381173 495532166 7044421 7044782 7044098 7044073 495535096 1354663630 7045329 495536084 7039973 866749025 7039960#0 7039960#1 7039964 76025453 1017357983 7041282 495536525 495536526 7041917 7042490 651227231 495537086 7376547 7376551 7376760 7377786 39911403 7377832 221380396 491590642#1 293658314 293658315 491590647 491573244 75919471 1333532307 1333532310"/>
	<route id="route_E2_A2" edges="1020818641 440995085 7379536 7379547 7379544 7379537 491586073 1269325989 1092980863 1092980862 7382656#0 7382656#2 741760849 741760848"/>
	<route id="route_E2_A3" edges="1020818641 440995085 7379536 7379547 7379544 7379537 491586073 7382664 491586101 491586100 1020896904 1269325986 798504998 7382998 741640644#0"/>
	<route id="route_E2_A4" edges="1020818641 440995085 7379536 7379547 7379544 7379537 491586073 7382664 491586101 491586100 1020896904 7382984 7382978 7382977 1269325982 491573234 1269325981 7381747 1270857700"/>
	<route id="route_E2_A5" edges="1020818641 440995085 7379536 7379547 7379544 7379537 491586073 7382664 491586101 491586100 1020896904 7382984 7382978 7382977 1269325982 491573234 7381819 1269325980 26956987 7385173"/>
	<route id="route_E2_A6" edges="1020818641 440995085 7379536 7379547 7379544 7379537 491586073 7382664 491586101 491586100 1020896904 7382984 7382978 7382977 1269325982 491573234 7381819 1269325979 7381806#0-AddedOnRampEdge 7381806#0 7381806#1 1359663064 7381745 1359663067 1359663075 1188637435 680074583#0 708026623"/>
	<route id="route_E2_A7" edges="1020818641 440995085 7379536 7379547 7379544 7379537 491586073 7382664 491586101 491586100 1020896904 7382984 7382978 7382977 1269325982 491573234 7381819 1269325979 7381806#0-AddedOnRampEdge 7381806#0 7381806#1 1359663064 7381745 1359663067 1359663075 1359663076 7375161 1093953831 495530118 495530119 1223241460 75028175 482265932"/>
	<route id="route_E2_A8" edges="1020818641 440995085 7379536 7379547 7379544 7379537 491586073 7382664 491586101 491586100 1020896904 7382984 7382978 7382977 1269325982 491573234 7381819 1269325979 7381806#0-AddedOnRampEdge 7381806#0 7381806#1 1359663064 7381745 1359663067 1359663075 1359663076 7375161 1093953831 495530118 495530119 1223241460 7370151 7370160 1359663063 1359663062 7361678 7361666 79355806 7051882"/>
	<route id="route_E2_A9" edges="1020818641 440995085 7379536 7379547 7379544 7379537 491586073 7382664 491586101 491586100 1020896904 7382984 7382978 7382977 1269325982 491573234 7381819 1269325979 7381806#0-AddedOnRampEdge 7381806#0 7381806#1 1359663064 7381745 1359663067 1359663075 1359663076 7375161 1093953831 495530118 495530119 1223241460 7370151 7370160 1359663063 1359663062 7368857 910069419 910069418 87949238 1266120162"/>
	<route id="route_E2_A10" edges="1020818641 440995085 7379536 7379547 7379544 7379537 491586073 7382664 491586101 491586100 1020896904 7382984 7382978 7382977 1269325982 491573234 7381819 1269325979 7381806#0-AddedOnRampEdge 7381806#0 7381806#1 1359663064 7381745 1359663067 1359663075 1359663076 7375161 1093953831 495530118 495530119 1223241460 7370151 7370160 1359663063 1359663062 7368857 910069419 910069418 87949238 7046916 27381173 495532166 7044422"/>
	<route id="route_E2_A11" edges="1020818641 440995085 7379536 7379547 7379544 7379537 491586073 7382664 491586101 491586100 1020896904 7382984 7382978 7382977 1269325982 491573234 7381819 1269325979 7381806#0-AddedOnRampEdge 7381806#0 7381806#1 1359663064 7381745 1359663067 1359663075 1359663076 7375161 1093953831 495530118 495530119 1223241460 7370151 7370160 1359663063 1359663062 7368857 910069419 910069418 87949238 7046916 27381173 495532166 7044421 7044782 761331609 1169016518"/>
	<route id="route_E2_A12" edges="1020818641 440995085 7379536 7379547 7379544 7379537 491586073 7382664 491586101 491586100 1020896904 7382984 7382978 7382977 1269325982 491573234 7381819 1269325979 7381806#0-AddedOnRampEdge 7381806#0 7381806#1 1359663064 7381745 1359663067 1359663075 1359663076 7375161 1093953831 495530118 495530119 1223241460 7370151 7370160 1359663063 1359663062 7368857 910069419 910069418 87949238 7046916 27381173 495532166 7044421 7044782 7044098 7044073 495535096 1354663631 7044074 7040607 495535095"/>
	<route id="route_E2_A13" edges="1020818641 440995085 7379536 7379547 7379544 7379537 491586073 7382664 491586101 491586100 1020896904 7382984 7382978 7382977 1269325982 491573234 7381819 1269325979 7381806#0-AddedOnRampEdge 7381806#0 7381806#1 1359663064 7381745 1359663067 1359663075 1359663076 7375161 1093953831 495530118 495530119 1223241460 7370151 7370160 1359663063 1359663062 7368857 910069419 910069418 87949238 7046916 27381173 495532166 7044421 7044782 7044098 7044073 495535096 1354663630 7045329 495536084 7039977 7039949"/>
	<route id="route_E2_A14" edges="1020818641 440995085 7379536 7379547 7379544 7379537 491586073 7382664 491586101 491586100 1020896904 7382984 7382978 7382977 1269325982 491573234 7381819 1269325979 7381806#0-AddedOnRampEdge 7381806#0 7381806#1 1359663064 7381745 1359663067 1359663075 1359663076 7375161 1093953831 495530118 495530119 1223241460 7370151 7370160 1359663063 1359663062 7368857 910069419 910069418 87949238 7046916 27381173 495532166 7044421 7044782 7044098 7044073 495535096 1354663630 7045329 495536084 7039973 866749025 7039960#0 7039960#1 7039964 76025454"/>
	<route id="route_E2_A15" edges="1020818641 440995085 7379536 7379547 7379544 7379537 491586073 7382664 491586101 491586100 1020896904 7382984 7382978 7382977 1269325982 491573234 7381819 1269325979 7381806#0-AddedOnRampEdge 7381806#0 7381806#1 1359663064 7381745 1359663067 1359663075 1359663076 7375161 1093953831 495530118 495530119 1223241460 7370151 7370160 1359663063 1359663062 7368857 910069419 910069418 87949238 7046916 27381173 495532166 7044421 7044782 7044098 7044073 495535096 1354663630 7045329 495536084 7039973 866749025 7039960#0 7039960#1 7039964 76025453 1017357983 7041282 495536525 495536526 7041920 1275354108 1275354109 41199724"/>
	<route id="route_E2_A16" edges="1020818641 440995085 7379536 7379547 7379544 7379537 491586073 7382664 491586101 491586100 1020896904 7382984 7382978 7382977 1269325982 491573234 7381819 1269325979 7381806#0-AddedOnRampEdge 7381806#0 7381806#1 1359663064 7381745 1359663067 1359663075 1359663076 7375161 1093953831 495530118 495530119 1223241460 7370151 7370160 1359663063 1359663062 7368857 910069419 910069418 87949238 7046916 27381173 495532166 7044421 7044782 7044098 7044073 495535096 1354663630 7045329 495536084 7039973 866749025 7039960#0 7039960#1 7039964 76025453 1017357983 7041282 495536525 495536526 7041917 7042490 651227231 495537086 7376546 1312974143"/>
	<route id="route_E2_A17" edges="1020818641 440995085 7379536 7379547 7379544 7379537 491586073 7382664 491586101 491586100 1020896904 7382984 7382978 7382977 1269325982 491573234 7381819 1269325979 7381806#0-AddedOnRampEdge 7381806#0 7381806#1 1359663064 7381745 1359663067 1359663075 1359663076 7375161 1093953831 495530118 495530119 1223241460 7370151 7370160 1359663063 1359663062 7368857 910069419 910069418 87949238 7046916 27381173 495532166 7044421 7044782 7044098 7044073 495535096 1354663630 7045329 495536084 7039973 866749025 7039960#0 7039960#1 7039964 76025453 1017357983 7041282 495536525 495536526 7041917 7042490 651227231 495537086 7376547 7376551 7376762 494761747 75925534 7377866 95596873"/>
	<route id="route_E2_A18" edges="1020818641 440995085 7379536 7379547 7379544 7379537 491586073 1269325989 1092980863 1092980862 7382656#0 7382656#2 741646133#0 7382618 35217026#0 741646123#0 7382662#0 7382662#1 7382662#1-AddedOffRampEdge 7382654#0 7382650 1092346866 491586076 217164331 7379509 491592275 75919461 491590649 1332839356 1332839357 130641964 1194755869 1194755870 859704531 593062896 221205614 7379192#2 679563338 39911405#0 221378827 7377836 6595423"/>
	<route id="route_E2_A19" edges="1020818641 440995085 7379536 7379547 7379544 7379537 491586073 7382664 491586101 491586100 1020896904 7382984 7382978 7382977 1269325982 491573234 7381819 1269325979 7381806#0-AddedOnRampEdge 7381806#0 7381806#1 1359663064 7381745 1359663067 1359663075 1359663076 7375161 1093953831 495530118 495530119 1223241460 7370151 7370160 1359663063 1359663062 7368857 910069419 910069418 87949238 7046916 27381173 495532166 7044421 7044782 7044098 7044073 495535096 1354663630 7045329 495536084 7039973 866749025 7039960#0 7039960#1 7039964 76025453 1017357983 7041282 495536525 495536526 7041917 7042490 651227231 495537086 7376547 7376551 7376760 7377786 293657146 123379291 123379293 1092348212#0 1092348213#0 1092348213#1 7377831 7379864 491590641#0 491590641#1 491590641#2 440995083"/>
	<route id="route_E3_A1" edges="1270110112 1270110115 491586100 1020896904 7382984 7382978 7382977 1269325982 491573234 7381819 1269325979 7381806#0-AddedOnRampEdge 7381806#0 7381806#1 1359663064 7381745 1359663067 1359663075 1359663076 7375161 1093953831 495530118 495530119 1223241460 7370151 7370160 1359663063 1359663062 7368857 910069419 910069418 87949238 7046916 27381173 495532166 7044421 7044782 7044098 7044073 495535096 1354663630 7045329 495536084 7039973 866749025 7039960#0 7039960#1 7039964 76025453 1017357983 7041282 495536525 495536526 7041917 7042490 651227231 495537086 7376547 7376551 7376760 7377786 39911403 7377832 221380396 491590642#1 293658314 293658315 491590647 491573244 75919471 1333532307 1333532310"/>
	<route id="route_E3_A2" edges="1270110112 1270110115 491586100 1020896904 1269325986 798504998 7382998 741640644#0 741640645#0 741640645#1 741640645#3 741759856 7382999#0 7382999#1 7382999#3 741640640 798505000 1269104017 491586085 75919472 440995089 1092981214#0 1092981214#2 741646123#0 7382617 741760849 741760848"/>
	<route id="route_E3_A3" edges="1270110112 1270110115 491586100 1020896904 1269325986 798504998 7382998 741640644#0"/>
	<route id="route_E3_A4" edges="1270110112 1270110115 491586100 1020896904 7382984 7382978 7382977 1269325982 491573234 1269325981 7381747 1270857700"/>
	<route id="route_E3_A5" edges="1270110112 1270110115 491586100 1020896904 7382984 7382978 7382977 1269325982 491573234 7381819 1269325980 26956987 7385173"/>
	<route id="route_E3_A6" edges="1270110112 1270110115 491586100 1020896904 7382984 7382978 7382977 1269325982 491573234 7381819 1269325979 7381806#0-AddedOnRampEdge 7381806#0 7381806#1 1359663064 7381745 1359663067 1359663075 1188637435 680074583#0 708026623"/>
	<route id="route_E3_A7" edges="1270110112 1270110115 491586100 1020896904 7382984 7382978 7382977 1269325982 491573234 7381819 1269325979 7381806#0-AddedOnRampEdge 7381806#0 7381806#1 1359663064 7381745 1359663067 1359663075 1359663076 7375161 1093953831 495530118 495530119 1223241460 75028175 482265932"/>
	<route id="route_E3_A8" edges="1270110112 1270110115 491586100 1020896904 7382984 7382978 7382977 1269325982 491573234 7381819 1269325979 7381806#0-AddedOnRampEdge 7381806#0 7381806#1 1359663064 7381745 1359663067 1359663075 1359663076 7375161 1093953831 495530118 495530119 1223241460 7370151 7370160 1359663063 1359663062 7361678 7361666 79355806 7051882"/>
	<route id="route_E3_A9" edges="1270110112 1270110115 491586100 1020896904 7382984 7382978 7382977 1269325982 491573234 7381819 1269325979 7381806#0-AddedOnRampEdge 7381806#0 7381806#1 1359663064 7381745 1359663067 1359663075 1359663076 7375161 1093953831 495530118 495530119 1223241460 7370151 7370160 1359663063 1359663062 7368857 910069419 910069418 87949238 1266120162"/>
	<route id="route_E3_A10" edges="1270110112 1270110115 491586100 1020896904 7382984 7382978 7382977 1269325982 491573234 7381819 1269325979 7381806#0-AddedOnRampEdge 7381806#0 7381806#1 1359663064 7381745 1359663067 1359663075 1359663076 7375161 1093953831 495530118 495530119 1223241460 7370151 7370160 1359663063 1359663062 7368857 910069419 910069418 87949238 7046916 27381173 495532166 7044422"/>
	<route id="route_E3_A11" edges="1270110112 1270110115 491586100 1020896904 7382984 7382978 7382977 1269325982 491573234 7381819 1269325979 7381806#0-AddedOnRampEdge 7381806#0 7381806#1 1359663064 7381745 1359663067 1359663075 1359663076 7375161 1093953831 495530118 495530119 1223241460 7370151 7370160 1359663063 1359663062 7368857 910069419 910069418 87949238 7046916 27381173 495532166 7044421 7044782 761331609 1169016518"/>
	<route id="route_E3_A12" edges="1270110112 1270110115 491586100 1020896904 7382984 7382978 7382977 1269325982 491573234 7381819 1269325979 7381806#0-AddedOnRampEdge 7381806#0 7381806#1 1359663064 7381745 1359663067 1359663075 1359663076 7375161 1093953831 495530118 495530119 1223241460 7370151 7370160 1359663063 1359663062 7368857 910069419 910069418 87949238 7046916 27381173 495532166 7044421 7044782 7044098 7044073 495535096 1354663631 7044074 7040607 495535095"/>
	<route id="route_E3_A13" edges="1270110112 1270110115 491586100 1020896904 7382984 7382978 7382977 1269325982 491573234 7381819 1269325979 7381806#0-AddedOnRampEdge 7381806#0 7381806#1 1359663064 7381745 1359663067 1359663075 1359663076 7375161 1093953831 495530118 495530119 1223241460 7370151 7370160 1359663063 1359663062 7368857 910069419 910069418 87949238 7046916 27381173 495532166 7044421 7044782 7044098 7044073 495535096 1354663630 7045329 495536084 7039977 7039949"/>
	<route id="route_E3_A14" edges="1270110112 1270110115 491586100 1020896904 7382984 7382978 7382977 1269325982 491573234 7381819 1269325979 7381806#0-AddedOnRampEdge 7381806#0 7381806#1 1359663064 7381745 1359663067 1359663075 1359663076 7375161 1093953831 495530118 495530119 1223241460 7370151 7370160 1359663063 1359663062 7368857 910069419 910069418 87949238 7046916 27381173 495532166 7044421 7044782 7044098 7044073 495535096 1354663630 7045329 495536084 7039973 866749025 7039960#0 7039960#1 7039964 76025454"/>
	<route id="route_E3_A15" edges="1270110112 1270110115 491586100 1020896904 7382984 7382978 7382977 1269325982 491573234 7381819 1269325979 7381806#0-AddedOnRampEdge 7381806#0 7381806#1 1359663064 7381745 1359663067 1359663075 1359663076 7375161 1093953831 495530118 495530119 1223241460 7370151 7370160 1359663063 1359663062 7368857 910069419 910069418 87949238 7046916 27381173 495532166 7044421 7044782 7044098 7044073 495535096 1354663630 7045329 495536084 7039973 866749025 7039960#0 7039960#1 7039964 76025453 1017357983 7041282 495536525 495536526 7041920 1275354108 1275354109 41199724"/>
	<route id="route_E3_A16" edges="1270110112 1270110115 491586100 1020896904 7382984 7382978 7382977 1269325982 491573234 7381819 1269325979 7381806#0-AddedOnRampEdge 7381806#0 7381806#1 1359663064 7381745 1359663067 1359663075 1359663076 7375161 1093953831 495530118 495530119 1223241460 7370151 7370160 1359663063 1359663062 7368857 910069419 910069418 87949238 7046916 27381173 495532166 7044421 7044782 7044098 7044073 495535096 1354663630 7045329 495536084 7039973 866749025 7039960#0 7039960#1 7039964 76025453 1017357983 7041282 495536525 495536526 7041917 7042490 651227231 495537086 7376546 1312974143"/>
	<route id="route_E3_A17" edges="1270110112 1270110115 491586100 1020896904 7382984 7382978 7382977 1269325982 491573234 7381819 1269325979 7381806#0-AddedOnRampEdge 7381806#0 7381806#1 1359663064 7381745 1359663067 1359663075 1359663076 7375161 1093953831 495530118 495530119 1223241460 7370151 7370160 1359663063 1359663062 7368857 910069419 910069418 87949238 7046916 27381173 495532166 7044421 7044782 7044098 7044073 495535096 1354663630 7045329 495536084 7039973 866749025 7039960#0 7039960#1 7039964 76025453 1017357983 7041282 495536525 495536526 7041917 7042490 651227231 495537086 7376547 7376551 7376762 494761747 75925534 7377866 95596873"/>
	<route id="route_E3_A18" edges="1270110112 1270110115 491586100 1020896904 1269325986 798504998 7382998 741640644#0 741640645#0 741640645#1 741640645#3 741759856 7382999#0 7382999#1 7382999#3 741640640 798505000 1269104017 491586085 491586092 7382655 7382650 1092346866 491586076 217164331 7379509 491592275 75919461 491590649 1332839356 1332839357 130641964 1194755869 1194755870 859704531 593062896 221205614 7379192#2 679563338 39911405#0 221378827 7377836 6595423"/>
	<route id="route_E3_A19" edges="1270110112 1270110115 491586100 1020896904 7382984 7382978 7382977 1269325982 491573234 7381819 1269325979 7381806#0-AddedOnRampEdge 7381806#0 7381806#1 1359663064 7381745 1359663067 1359663075 1359663076 7375161 1093953831 495530118 495530119 1223241460 7370151 7370160 1359663063 1359663062 7368857 910069419 910069418 87949238 7046916 27381173 495532166 7044421 7044782 7044098 7044073 495535096 1354663630 7045329 495536084 7039973 866749025 7039960#0 7039960#1 7039964 76025453 1017357983 7041282 495536525 495536526 7041917 7042490 651227231 495537086 7376547 7376551 7376760 7377786 293657146 123379291 123379293 1092348212#0 1092348213#0 1092348213#1 7377831 7379864 491590641#0 491590641#1 491590641#2 440995083"/>
	<route id="route_E4_A1" edges="7383001 228453578 7382977 1269325982 491573234 7381819 1269325979 7381806#0-AddedOnRampEdge 7381806#0 7381806#1 1359663064 7381745 1359663067 1359663075 1359663076 7375161 1093953831 495530118 495530119 1223241460 7370151 7370160 1359663063 1359663062 7368857 910069419 910069418 87949238 7046916 27381173 495532166 7044421 7044782 7044098 7044073 495535096 1354663630 7045329 495536084 7039973 866749025 7039960#0 7039960#1 7039964 76025453 1017357983 7041282 495536525 495536526 7041917 7042490 651227231 495537086 7376547 7376551 7376760 7377786 39911403 7377832 221380396 491590642#1 293658314 293658315 491590647 491573244 75919471 1333532307 1333532310"/>
	<route id="route_E4_A2" edges="7383001 228453578 7382977 1269325982 491573234 1269325981 7381747 1270857700 775236441#0 7381682 1270857692#0 680090992 32011082#0 7381628 1270857691#0 706997155 7381727 7381817 38245925 491573232 491574922 1269104017 491586085 75919472 440995089 1092981214#0 1092981214#2 741646123#0 7382617 741760849 741760848"/>
	<route id="route_E4_A3" edges="7383001 228453578 7382977 1269325982 491573234 1269325981 7381747 1270857700 775236441#0 7381682 1270857692#0 680090992 32011082#0 7381628 1270857691#0 706997155 7381727 7381817 38245925 491573232 491574922 1269104017 491586085 75919472 440995089 1092981214#0 1092981214#2 741646123#0 7382617 741646133#0 1270110113#0 1270110113#1 1270110112 1270110115 491586100 1020896904 1269325986 798504998 7382998 741640644#0"/>
	<route id="route_E4_A4" edges="7383001 228453578 7382977 1269325982 491573234 1269325981 7381747 1270857700"/>
	<route id="route_E4_A5" edges="7383001 228453578 7382977 1269325982 491573234 7381819 1269325980 26956987 7385173"/>
	<route id="route_E4_A6" edges="7383001 228453578 7382977 1269325982 491573234 7381819 1269325979 7381806#0-AddedOnRampEdge 7381806#0 7381806#1 1359663064 7381745 1359663067 1359663075 1188637435 680074583#0 708026623"/>
	<route id="route_E4_A7" edges="7383001 228453578 7382977 1269325982 491573234 7381819 1269325979 7381806#0-AddedOnRampEdge 7381806#0 7381806#1 1359663064 7381745 1359663067 1359663075 1359663076 7375161 1093953831 495530118 495530119 1223241460 75028175 482265932"/>
	<route id="route_E4_A8" edges="7383001 228453578 7382977 1269325982 491573234 7381819 1269325979 7381806#0-AddedOnRampEdge 7381806#0 7381806#1 1359663064 7381745 1359663067 1359663075 1359663076 7375161 1093953831 495530118 495530119 1223241460 7370151 7370160 1359663063 1359663062 7361678 7361666 79355806 7051882"/>
	<route id="route_E4_A9" edges="7383001 228453578 7382977 1269325982 491573234 7381819 1269325979 7381806#0-AddedOnRampEdge 7381806#0 7381806#1 1359663064 7381745 1359663067 1359663075 1359663076 7375161 1093953831 495530118 495530119 1223241460 7370151 7370160 1359663063 1359663062 7368857 910069419 910069418 87949238 1266120162"/>