<?xml version="1.0" encoding="UTF-8"?>

<!-- generated on 2025-04-11 21:40:17 by Eclipse SUMO netedit Version 1.19.0
<configuration xmlns:xsi="http://www.w3.org/2001/XMLSchema-instance" xsi:noNamespaceSchemaLocation="http://sumo.dlr.de/xsd/neteditConfiguration.xsd">

    <input>
        <sumo-net-file value="C:\Users\kriehl\Desktop\OmarOptim\data\download_network_amsterdam\osm_reduced_kevin.net.xml"/>
    </input>

    <output>
        <output-file value="C:\Users\kriehl\Desktop\OmarOptim\data\download_network_amsterdam\osm_reduced_kevin.net.xml"/>
        <output.street-names value="true"/>
    </output>

    <processing>
        <geometry.min-radius.fix.railways value="false"/>
        <geometry.max-grade.fix value="false"/>
        <offset.disable-normalization value="true"/>
        <lefthand value="0"/>
    </processing>

    <junctions>
        <no-turnarounds value="true"/>
        <junctions.corner-detail value="5"/>
        <junctions.limit-turn-speed value="5.50"/>
        <rectangular-lane-cut value="0"/>
    </junctions>

    <pedestrian>
        <walkingareas value="0"/>
    </pedestrian>

</configuration>
-->

<net version="1.16" junctionCornerDetail="5" limitTurnSpeed="5.50" xmlns:xsi="http://www.w3.org/2001/XMLSchema-instance" xsi:noNamespaceSchemaLocation="http://sumo.dlr.de/xsd/net_file.xsd">

    <location netOffset="-618970.17,-5795336.53" convBoundary="522.25,1125.86,16210.24,16406.94" origBoundary="4.582991,52.171210,5.433919,52.525851" projParameter="+proj=utm +zone=31 +ellps=WGS84 +datum=WGS84 +units=m +no_defs"/>

    <type id="highway.cycleway" priority="1" numLanes="1" speed="5.56" allow="bicycle" oneway="0" width="2.00"/>
    <type id="highway.motorway" priority="14" numLanes="2" speed="39.44" allow="private emergency authority army vip passenger hov taxi bus coach delivery truck trailer motorcycle evehicle custom1 custom2" oneway="1"/>
    <type id="highway.motorway_link" priority="9" numLanes="1" speed="22.22" allow="private emergency authority army vip passenger hov taxi bus coach delivery truck trailer motorcycle evehicle custom1 custom2" oneway="1"/>
    <type id="highway.secondary" priority="11" numLanes="1" speed="27.78" disallow="tram rail_urban rail rail_electric rail_fast ship" oneway="0"/>
    <type id="highway.secondary_link" priority="6" numLanes="1" speed="22.22" disallow="tram rail_urban rail rail_electric rail_fast ship" oneway="0"/>
    <type id="highway.service" priority="1" numLanes="1" speed="5.56" allow="pedestrian delivery bicycle" oneway="0"/>

    <edge id=":10002023700_0" function="internal">
        <lane id=":10002023700_0_0" index="0" allow="private emergency authority army vip passenger hov taxi bus coach delivery truck trailer motorcycle evehicle custom1 custom2" speed="27.78" length="8.14" shape="2605.58,3435.45 2607.99,3435.68 2609.69,3435.47 2611.37,3435.28 2613.77,3435.58"/>
        <lane id=":10002023700_0_1" index="1" allow="private emergency authority army vip passenger hov taxi bus coach delivery truck trailer motorcycle evehicle custom1 custom2" speed="27.78" length="8.14" shape="2604.96,3438.59 2607.34,3438.81 2609.01,3438.60 2610.68,3438.41 2613.05,3438.70"/>
        <lane id=":10002023700_0_2" index="2" allow="private emergency authority army vip passenger hov taxi bus coach delivery truck trailer motorcycle evehicle custom1 custom2" speed="27.78" length="8.14" shape="2604.33,3441.73 2606.68,3441.94 2608.33,3441.73 2609.98,3441.53 2612.32,3441.81"/>
    </edge>
    <edge id=":10002023702_0" function="internal">
        <lane id=":10002023702_0_0" index="0" allow="private emergency authority army vip passenger hov taxi bus coach delivery truck trailer motorcycle evehicle custom1 custom2" speed="27.78" length="8.30" shape="4294.83,4648.77 4297.10,4649.83 4299.15,4649.45 4301.24,4649.05 4303.60,4650.00"/>
        <lane id=":10002023702_0_1" index="1" allow="private emergency authority army vip passenger hov taxi bus coach delivery truck trailer motorcycle evehicle custom1 custom2" speed="27.78" length="8.30" shape="4294.83,4648.77 4296.66,4650.10 4298.15,4650.68 4299.66,4651.24 4301.58,4652.48"/>
        <lane id=":10002023702_0_2" index="2" allow="private emergency authority army vip passenger hov taxi bus coach delivery truck trailer motorcycle evehicle custom1 custom2" speed="27.78" length="8.30" shape="4292.67,4651.13 4294.54,4652.50 4296.06,4653.11 4297.60,4653.69 4299.55,4654.96"/>
        <lane id=":10002023702_0_3" index="3" allow="private emergency authority army vip passenger hov taxi bus coach delivery truck trailer motorcycle evehicle custom1 custom2" speed="27.78" length="8.30" shape="4290.51,4653.50 4292.43,4654.90 4293.97,4655.53 4295.54,4656.13 4297.53,4657.44"/>
        <lane id=":10002023702_0_4" index="4" allow="private emergency authority army vip passenger hov taxi bus coach delivery truck trailer motorcycle evehicle custom1 custom2" speed="27.78" length="8.30" shape="4288.36,4655.86 4290.31,4657.30 4291.88,4657.95 4293.47,4658.58 4295.51,4659.92"/>
        <lane id=":10002023702_0_5" index="5" allow="private emergency authority army vip passenger hov taxi bus coach delivery truck trailer motorcycle evehicle custom1 custom2" speed="27.78" length="8.30" shape="4286.20,4658.23 4288.19,4659.70 4289.79,4660.38 4291.41,4661.03 4293.48,4662.40"/>
    </edge>
    <edge id=":10002083901_0" function="internal">
        <lane id=":10002083901_0_0" index="0" allow="private emergency authority army vip passenger hov taxi bus coach delivery truck trailer motorcycle evehicle custom1 custom2" speed="25.00" length="0.10" shape="4402.25,4856.62 4402.17,4856.57"/>
        <lane id=":10002083901_0_1" index="1" allow="private emergency authority army vip passenger hov taxi bus coach delivery truck trailer motorcycle evehicle custom1 custom2" speed="25.00" length="0.10" shape="4404.03,4853.96 4404.11,4854.01"/>
    </edge>
    <edge id=":10004097876_0" function="internal">
        <lane id=":10004097876_0_0" index="0" allow="private emergency authority army vip passenger hov taxi bus coach delivery truck trailer motorcycle evehicle custom1 custom2" speed="27.78" length="9.64" shape="12023.17,2392.42 12022.31,2394.98 12022.81,2397.13 12023.29,2399.27 12022.36,2401.78"/>
        <lane id=":10004097876_0_1" index="1" allow="private emergency authority army vip passenger hov taxi bus coach delivery truck trailer motorcycle evehicle custom1 custom2" speed="27.78" length="9.64" shape="12020.54,2390.60 12019.70,2393.13 12020.21,2395.27 12020.71,2397.38 12019.79,2399.86"/>
        <lane id=":10004097876_0_2" index="2" allow="private emergency authority army vip passenger hov taxi bus coach delivery truck trailer motorcycle evehicle custom1 custom2" speed="27.78" length="9.64" shape="12017.90,2388.78 12017.08,2391.29 12017.61,2393.40 12018.12,2395.49 12017.22,2397.95"/>
        <lane id=":10004097876_0_3" index="3" allow="private emergency authority army vip passenger hov taxi bus coach delivery truck trailer motorcycle evehicle custom1 custom2" speed="27.78" length="9.64" shape="12015.27,2386.96 12014.47,2389.44 12015.01,2391.53 12015.54,2393.61 12014.66,2396.04"/>
    </edge>
    <edge id=":10004097877_0" function="internal">
        <lane id=":10004097877_0_0" index="0" allow="private emergency authority army vip passenger hov taxi bus coach delivery truck trailer motorcycle evehicle custom1 custom2" speed="27.78" length="8.46" shape="12119.29,2201.87 12120.16,2199.34 12119.64,2197.21 12119.12,2195.09 12119.98,2192.56"/>
        <lane id=":10004097877_0_1" index="1" allow="private emergency authority army vip passenger hov taxi bus coach delivery truck trailer motorcycle evehicle custom1 custom2" speed="27.78" length="8.46" shape="12119.29,2201.87 12120.47,2199.76 12120.94,2198.14 12121.42,2196.51 12122.59,2194.40"/>
        <lane id=":10004097877_0_2" index="2" allow="private emergency authority army vip passenger hov taxi bus coach delivery truck trailer motorcycle evehicle custom1 custom2" speed="27.78" length="8.46" shape="12121.91,2203.71 12123.09,2201.61 12123.56,2199.98 12124.03,2198.35 12125.21,2196.25"/>
        <lane id=":10004097877_0_3" index="3" allow="private emergency authority army vip passenger hov taxi bus coach delivery truck trailer motorcycle evehicle custom1 custom2" speed="27.78" length="8.46" shape="12124.52,2205.56 12125.70,2203.45 12126.17,2201.83 12126.65,2200.20 12127.82,2198.09"/>
        <lane id=":10004097877_0_4" index="4" allow="private emergency authority army vip passenger hov taxi bus coach delivery truck trailer motorcycle evehicle custom1 custom2" speed="27.78" length="8.46" shape="12127.14,2207.40 12128.31,2205.30 12128.79,2203.67 12129.26,2202.04 12130.44,2199.94"/>
        <lane id=":10004097877_0_5" index="5" allow="private emergency authority army vip passenger hov taxi bus coach delivery truck trailer motorcycle evehicle custom1 custom2" speed="27.78" length="8.46" shape="12129.75,2209.25 12130.93,2207.15 12131.40,2205.52 12131.87,2203.89 12133.05,2201.79"/>
    </edge>
    <edge id=":10004161497_0" function="internal">
        <lane id=":10004161497_0_0" index="0" allow="private emergency authority army vip passenger hov taxi bus coach delivery truck trailer motorcycle evehicle custom1 custom2" speed="22.22" length="7.99" shape="6524.23,9167.62 6526.05,9175.43"/>
        <lane id=":10004161497_0_1" index="1" allow="private emergency authority army vip passenger hov taxi bus coach delivery truck trailer motorcycle evehicle custom1 custom2" speed="22.22" length="7.99" shape="6521.11,9168.36 6522.93,9176.14"/>
        <lane id=":10004161497_0_2" index="2" allow="private emergency authority army vip passenger hov taxi bus coach delivery truck trailer motorcycle evehicle custom1 custom2" speed="22.22" length="7.99" shape="6518.00,9169.11 6519.81,9176.85"/>
    </edge>
    <edge id=":10009881172_0" function="internal">
        <lane id=":10009881172_0_0" index="0" allow="private emergency authority army vip passenger hov taxi bus coach delivery truck trailer motorcycle evehicle custom1 custom2" speed="22.22" length="8.24" shape="6415.15,8861.65 6413.07,8854.03"/>
        <lane id=":10009881172_0_1" index="1" allow="private emergency authority army vip passenger hov taxi bus coach delivery truck trailer motorcycle evehicle custom1 custom2" speed="22.22" length="8.24" shape="6418.25,8860.84 6416.14,8853.14"/>
        <lane id=":10009881172_0_2" index="2" allow="private emergency authority army vip passenger hov taxi bus coach delivery truck trailer motorcycle evehicle custom1 custom2" speed="22.22" length="8.24" shape="6418.25,8860.84 6418.11,8858.32 6418.77,8856.54 6419.42,8854.76 6419.22,8852.26"/>
    </edge>
    <edge id=":10011353487_0" function="internal">
        <lane id=":10011353487_0_0" index="0" allow="private emergency authority army vip passenger hov taxi bus coach delivery truck trailer motorcycle evehicle custom1 custom2" speed="27.78" length="8.69" shape="2572.40,3347.06 2574.96,3346.28 2576.41,3344.62 2577.85,3342.97 2580.42,3342.25"/>
        <lane id=":10011353487_0_1" index="1" allow="private emergency authority army vip passenger hov taxi bus coach delivery truck trailer motorcycle evehicle custom1 custom2" speed="27.78" length="8.69" shape="2572.40,3347.06 2574.79,3346.78 2576.39,3346.22 2577.99,3345.68 2580.39,3345.45"/>
        <lane id=":10011353487_0_2" index="2" allow="private emergency authority army vip passenger hov taxi bus coach delivery truck trailer motorcycle evehicle custom1 custom2" speed="27.78" length="8.69" shape="2572.44,3350.26 2574.81,3349.98 2576.40,3349.42 2577.98,3348.88 2580.36,3348.65"/>
    </edge>
    <edge id=":10019262360_0" function="internal">
        <lane id=":10019262360_0_0" index="0" allow="private emergency authority army vip passenger hov taxi bus coach delivery truck trailer motorcycle evehicle custom1 custom2" speed="25.00" length="8.00" shape="8258.81,4961.63 8266.77,4962.43"/>
        <lane id=":10019262360_0_1" index="1" allow="private emergency authority army vip passenger hov taxi bus coach delivery truck trailer motorcycle evehicle custom1 custom2" speed="25.00" length="8.00" shape="8258.49,4964.81 8266.45,4965.62"/>
        <lane id=":10019262360_0_2" index="2" allow="private emergency authority army vip passenger hov taxi bus coach delivery truck trailer motorcycle evehicle custom1 custom2" speed="25.00" length="8.00" shape="8258.17,4967.99 8266.13,4968.80"/>
        <lane id=":10019262360_0_3" index="3" allow="private emergency authority army vip passenger hov taxi bus coach delivery truck trailer motorcycle evehicle custom1 custom2" speed="25.00" length="8.00" shape="8257.85,4971.18 8265.81,4971.98"/>
    </edge>
    <edge id=":10019287707_0" function="internal">
        <lane id=":10019287707_0_0" index="0" allow="private emergency authority army vip passenger hov taxi bus coach delivery truck trailer motorcycle evehicle custom1 custom2" speed="27.78" length="7.98" shape="14583.65,11439.79 14579.63,11446.73"/>
        <lane id=":10019287707_0_1" index="1" allow="private emergency authority army vip passenger hov taxi bus coach delivery truck trailer motorcycle evehicle custom1 custom2" speed="27.78" length="7.98" shape="14580.86,11438.21 14576.87,11445.11"/>
        <lane id=":10019287707_0_2" index="2" allow="private emergency authority army vip passenger hov taxi bus coach delivery truck trailer motorcycle evehicle custom1 custom2" speed="27.78" length="7.98" shape="14578.08,11436.63 14574.11,11443.49"/>
    </edge>
    <edge id=":10019305123_0" function="internal">
        <lane id=":10019305123_0_0" index="0" allow="private emergency authority army vip passenger hov taxi bus coach delivery truck trailer motorcycle evehicle custom1 custom2" speed="27.78" length="8.00" shape="13578.16,12446.34 13584.88,12441.99"/>
        <lane id=":10019305123_0_1" index="1" allow="private emergency authority army vip passenger hov taxi bus coach delivery truck trailer motorcycle evehicle custom1 custom2" speed="27.78" length="8.00" shape="13579.90,12449.03 13586.62,12444.67"/>
        <lane id=":10019305123_0_2" index="2" allow="private emergency authority army vip passenger hov taxi bus coach delivery truck trailer motorcycle evehicle custom1 custom2" speed="27.78" length="8.00" shape="13581.65,12451.71 13588.36,12447.36"/>
    </edge>
    <edge id=":10019345447_0" function="internal">
        <lane id=":10019345447_0_0" index="0" allow="private emergency authority army vip passenger hov taxi bus coach delivery truck trailer motorcycle evehicle custom1 custom2" speed="27.78" length="8.19" shape="3620.25,4053.98 3618.31,4052.53 3616.76,4051.84 3615.21,4051.13 3613.31,4049.65"/>
        <lane id=":10019345447_0_1" index="1" allow="private emergency authority army vip passenger hov taxi bus coach delivery truck trailer motorcycle evehicle custom1 custom2" speed="27.78" length="8.19" shape="3620.25,4053.98 3618.66,4052.17 3617.87,4050.68 3617.08,4049.18 3615.52,4047.34"/>
        <lane id=":10019345447_0_2" index="2" allow="private emergency authority army vip passenger hov taxi bus coach delivery truck trailer motorcycle evehicle custom1 custom2" speed="27.78" length="8.19" shape="3622.42,4051.62 3620.84,4049.83 3620.06,4048.35 3619.28,4046.86 3617.74,4045.03"/>
    </edge>
    <edge id=":1026622779_0" function="internal">
        <lane id=":1026622779_0_0" index="0" allow="private emergency authority army vip passenger hov taxi bus coach delivery truck trailer motorcycle evehicle custom1 custom2" speed="27.78" length="8.16" shape="7723.39,5080.08 7720.90,5080.32 7719.24,5081.22 7717.59,5082.05 7715.14,5082.07"/>
        <lane id=":1026622779_0_1" index="1" allow="private emergency authority army vip passenger hov taxi bus coach delivery truck trailer motorcycle evehicle custom1 custom2" speed="27.78" length="8.16" shape="7723.72,5076.90 7721.32,5077.15 7719.72,5078.06 7718.13,5078.89 7715.77,5078.93"/>
        <lane id=":1026622779_0_2" index="2" allow="private emergency authority army vip passenger hov taxi bus coach delivery truck trailer motorcycle evehicle custom1 custom2" speed="27.78" length="8.16" shape="7723.72,5076.90 7721.53,5076.67 7720.04,5076.47 7718.55,5076.22 7716.39,5075.79"/>
        <lane id=":1026622779_0_3" index="3" allow="private emergency authority army vip passenger hov taxi bus coach delivery truck trailer motorcycle evehicle custom1 custom2" speed="27.78" length="8.16" shape="7723.72,5076.90 7721.55,5076.17 7720.35,5074.91 7719.15,5073.59 7717.02,5072.65"/>
    </edge>
    <edge id=":1057076057_0" function="internal">
        <lane id=":1057076057_0_0" index="0" allow="private emergency authority army vip passenger hov taxi bus coach delivery truck trailer motorcycle evehicle custom1 custom2" speed="13.89" length="3.48" shape="6379.74,5732.18 6380.77,5732.09 6381.47,5732.00 6382.16,5731.85 6383.16,5731.58"/>
    </edge>
    <edge id=":1057076057_1" function="internal">
        <lane id=":1057076057_1_0" index="0" disallow="tram rail_urban rail rail_electric rail_fast ship" speed="13.89" length="3.31" shape="6380.00,5735.37 6380.98,5735.29 6381.66,5735.27 6382.33,5735.32 6383.30,5735.43"/>
    </edge>
    <edge id=":1057076374_0" function="internal">
        <lane id=":1057076374_0_0" index="0" disallow="pedestrian tram rail_urban rail rail_electric rail_fast ship" speed="4.33" length="5.92" shape="6216.93,5692.24 6218.69,5691.34 6219.67,5691.37 6219.86,5692.33 6219.25,5694.22"/>
    </edge>
    <edge id=":11037254214_0" function="internal">
        <lane id=":11037254214_0_0" index="0" allow="private emergency authority army vip passenger hov taxi bus coach delivery truck trailer motorcycle evehicle custom1 custom2" speed="13.89" length="8.61" shape="7736.28,4828.26 7733.95,4828.97 7732.57,4830.20 7731.21,4831.47 7728.88,4832.25"/>
        <lane id=":11037254214_0_1" index="1" allow="private emergency authority army vip passenger hov taxi bus coach delivery truck trailer motorcycle evehicle custom1 custom2" speed="13.89" length="8.61" shape="7736.01,4825.08 7733.64,4825.78 7732.24,4827.02 7730.85,4828.29 7728.49,4829.07"/>
        <lane id=":11037254214_0_2" index="2" allow="private emergency authority army vip passenger hov taxi bus coach delivery truck trailer motorcycle evehicle custom1 custom2" speed="13.89" length="8.61" shape="7735.73,4821.89 7733.33,4822.60 7731.91,4823.84 7730.50,4825.10 7728.11,4825.90"/>
        <lane id=":11037254214_0_3" index="3" allow="private emergency authority army vip passenger hov taxi bus coach delivery truck trailer motorcycle evehicle custom1 custom2" speed="13.89" length="8.61" shape="7735.73,4821.89 7727.72,4822.72"/>
        <lane id=":11037254214_0_4" index="4" allow="private emergency authority army vip passenger hov taxi bus coach delivery truck trailer motorcycle evehicle custom1 custom2" speed="13.89" length="8.61" shape="7735.73,4821.89 7733.20,4821.61 7731.53,4820.66 7729.86,4819.74 7727.34,4819.54"/>
    </edge>
    <edge id=":11056882279_0" function="internal">
        <lane id=":11056882279_0_0" index="0" allow="private emergency authority army vip passenger hov taxi bus coach delivery truck trailer motorcycle evehicle custom1 custom2" speed="25.00" length="0.27" shape="4635.96,4960.16 4635.84,4960.17 4635.76,4960.17 4635.68,4960.17 4635.56,4960.15"/>
        <lane id=":11056882279_0_1" index="1" allow="private emergency authority army vip passenger hov taxi bus coach delivery truck trailer motorcycle evehicle custom1 custom2" speed="25.00" length="0.27" shape="4635.95,4956.96 4635.91,4956.96 4635.88,4956.97 4635.85,4956.96 4635.82,4956.96"/>
    </edge>
    <edge id=":11056882282_0" function="internal">
        <lane id=":11056882282_0_0" index="0" allow="private emergency authority army vip passenger hov taxi bus coach delivery truck trailer motorcycle evehicle custom1 custom2" speed="27.78" length="3.22" shape="5402.26,4969.28 5402.24,4966.06"/>
        <lane id=":11056882282_0_1" index="1" allow="private emergency authority army vip passenger hov taxi bus coach delivery truck trailer motorcycle evehicle custom1 custom2" speed="27.78" length="3.22" shape="5402.48,4966.08 5402.41,4962.87"/>
        <lane id=":11056882282_0_2" index="2" allow="private emergency authority army vip passenger hov taxi bus coach delivery truck trailer motorcycle evehicle custom1 custom2" speed="27.78" length="3.22" shape="5402.69,4962.89 5402.59,4959.67"/>
        <lane id=":11056882282_0_3" index="3" allow="private emergency authority army vip passenger hov taxi bus coach delivery truck trailer motorcycle evehicle custom1 custom2" speed="27.78" length="3.22" shape="5402.90,4959.70 5402.77,4956.48"/>
        <lane id=":11056882282_0_4" index="4" allow="private emergency authority army vip passenger hov taxi bus coach delivery truck trailer motorcycle evehicle custom1 custom2" speed="27.78" length="3.22" shape="5403.12,4956.50 5402.95,4953.28"/>
    </edge>
    <edge id=":11056882283_0" function="internal">
        <lane id=":11056882283_0_0" index="0" allow="private emergency authority army vip passenger hov taxi bus coach delivery truck trailer motorcycle evehicle custom1 custom2" speed="27.78" length="0.30" shape="5034.09,4945.49 5033.77,4945.47"/>
        <lane id=":11056882283_0_1" index="1" allow="private emergency authority army vip passenger hov taxi bus coach delivery truck trailer motorcycle evehicle custom1 custom2" speed="27.78" length="0.30" shape="5034.26,4942.29 5033.95,4942.28"/>
        <lane id=":11056882283_0_2" index="2" allow="private emergency authority army vip passenger hov taxi bus coach delivery truck trailer motorcycle evehicle custom1 custom2" speed="27.78" length="0.30" shape="5034.44,4939.10 5034.14,4939.08"/>
        <lane id=":11056882283_0_3" index="3" allow="private emergency authority army vip passenger hov taxi bus coach delivery truck trailer motorcycle evehicle custom1 custom2" speed="27.78" length="0.30" shape="5034.62,4935.90 5034.33,4935.89"/>
        <lane id=":11056882283_0_4" index="4" allow="private emergency authority army vip passenger hov taxi bus coach delivery truck trailer motorcycle evehicle custom1 custom2" speed="27.78" length="0.30" shape="5034.79,4932.71 5034.52,4932.69"/>
    </edge>
    <edge id=":11056882284_0" function="internal">
        <lane id=":11056882284_0_0" index="0" allow="private emergency authority army vip passenger hov taxi bus coach delivery truck trailer motorcycle evehicle custom1 custom2" speed="27.78" length="8.45" shape="5013.41,4944.27 5010.84,4944.87 5009.34,4946.44 5007.83,4948.02 5005.25,4948.65"/>
        <lane id=":11056882284_0_1" index="1" allow="private emergency authority army vip passenger hov taxi bus coach delivery truck trailer motorcycle evehicle custom1 custom2" speed="27.78" length="8.45" shape="5013.41,4944.27 5011.03,4944.39 5009.41,4944.85 5007.80,4945.32 5005.41,4945.45"/>
        <lane id=":11056882284_0_2" index="2" allow="private emergency authority army vip passenger hov taxi bus coach delivery truck trailer motorcycle evehicle custom1 custom2" speed="27.78" length="8.45" shape="5013.60,4941.08 5011.20,4941.19 5009.58,4941.65 5007.96,4942.12 5005.56,4942.26"/>
        <lane id=":11056882284_0_3" index="3" allow="private emergency authority army vip passenger hov taxi bus coach delivery truck trailer motorcycle evehicle custom1 custom2" speed="27.78" length="8.45" shape="5013.79,4937.89 5011.38,4938.00 5009.75,4938.46 5008.12,4938.93 5005.71,4939.06"/>
        <lane id=":11056882284_0_4" index="4" allow="private emergency authority army vip passenger hov taxi bus coach delivery truck trailer motorcycle evehicle custom1 custom2" speed="27.78" length="8.45" shape="5013.98,4934.69 5011.56,4934.80 5009.92,4935.26 5008.28,4935.73 5005.87,4935.86"/>
        <lane id=":11056882284_0_5" index="5" allow="private emergency authority army vip passenger hov taxi bus coach delivery truck trailer motorcycle evehicle custom1 custom2" speed="27.78" length="8.45" shape="5014.16,4931.50 5011.74,4931.61 5010.09,4932.07 5008.45,4932.53 5006.02,4932.67"/>
    </edge>
    <edge id=":11089254775_0" function="internal">
        <lane id=":11089254775_0_0" index="0" allow="private emergency authority army vip passenger hov taxi bus coach delivery truck trailer motorcycle evehicle custom1 custom2" speed="25.00" length="1.69" shape="6559.72,11298.31 6558.25,11299.04"/>
        <lane id=":11089254775_0_1" index="1" allow="private emergency authority army vip passenger hov taxi bus coach delivery truck trailer motorcycle evehicle custom1 custom2" speed="25.00" length="1.69" shape="6556.59,11299.01 6555.15,11299.86"/>
        <lane id=":11089254775_0_2" index="2" allow="private emergency authority army vip passenger hov taxi bus coach delivery truck trailer motorcycle evehicle custom1 custom2" speed="25.00" length="1.69" shape="6553.47,11299.70 6552.06,11300.67"/>
        <lane id=":11089254775_0_3" index="3" allow="private emergency authority army vip passenger hov taxi bus coach delivery truck trailer motorcycle evehicle custom1 custom2" speed="25.00" length="1.69" shape="6550.35,11300.40 6548.97,11301.49"/>
    </edge>
    <edge id=":11089286501_0" function="internal">
        <lane id=":11089286501_0_0" index="0" allow="private emergency authority army vip passenger hov taxi bus coach delivery truck trailer motorcycle evehicle custom1 custom2" speed="22.22" length="8.15" shape="6627.02,11582.81 6628.38,11584.74 6629.64,11585.83 6630.92,11586.90 6632.37,11588.79"/>
        <lane id=":11089286501_0_1" index="1" allow="private emergency authority army vip passenger hov taxi bus coach delivery truck trailer motorcycle evehicle custom1 custom2" speed="22.22" length="8.15" shape="6624.23,11584.36 6625.61,11586.33 6626.88,11587.45 6628.18,11588.54 6629.65,11590.46"/>
    </edge>
    <edge id=":11089286502_0" function="internal">
        <lane id=":11089286502_0_0" index="0" allow="private emergency authority army vip passenger hov taxi bus coach delivery truck trailer motorcycle evehicle custom1 custom2" speed="25.00" length="0.25" shape="6649.93,11618.41 6650.03,11618.57"/>
        <lane id=":11089286502_0_1" index="1" allow="private emergency authority army vip passenger hov taxi bus coach delivery truck trailer motorcycle evehicle custom1 custom2" speed="25.00" length="0.25" shape="6647.17,11620.02 6647.32,11620.28"/>
    </edge>
    <edge id=":1131595471_0" function="internal">
        <lane id=":1131595471_0_0" index="0" allow="private emergency authority army vip passenger hov taxi bus coach delivery truck trailer motorcycle evehicle custom1 custom2" speed="22.22" length="8.11" shape="6491.56,6847.07 6491.61,6844.69 6491.24,6843.07 6490.83,6841.44 6490.75,6839.05"/>
    </edge>
    <edge id=":1131595475_0" function="internal">
        <lane id=":1131595475_0_0" index="0" allow="private emergency authority army vip passenger hov taxi bus coach delivery truck trailer motorcycle evehicle custom1 custom2" speed="22.22" length="7.90" shape="6460.51,5952.67 6460.26,5960.56"/>
    </edge>
    <edge id=":1131595494_0" function="internal">
        <lane id=":1131595494_0_0" index="0" allow="private emergency authority army vip passenger hov taxi bus coach delivery truck trailer motorcycle evehicle custom1 custom2" speed="22.22" length="7.92" shape="6471.30,8288.66 6471.69,8290.98 6472.31,8292.52 6472.86,8294.07 6473.08,8296.39"/>
        <lane id=":1131595494_0_1" index="1" allow="private emergency authority army vip passenger hov taxi bus coach delivery truck trailer motorcycle evehicle custom1 custom2" speed="22.22" length="7.92" shape="6471.30,8288.66 6471.19,8290.96 6470.70,8292.50 6470.16,8294.04 6469.88,8296.34"/>
    </edge>
    <edge id=":1131595503_0" function="internal">
        <lane id=":1131595503_0_0" index="0" allow="private emergency authority army vip passenger hov taxi bus coach delivery truck trailer motorcycle evehicle custom1 custom2" speed="22.22" length="2.99" shape="6498.97,7475.49 6498.73,7478.47"/>
    </edge>
    <edge id=":1131595503_1" function="internal">
        <lane id=":1131595503_1_0" index="0" allow="private emergency authority army vip passenger hov taxi bus coach delivery truck trailer motorcycle evehicle custom1 custom2" speed="22.22" length="3.00" shape="6495.68,7475.34 6495.53,7478.33"/>
        <lane id=":1131595503_1_1" index="1" allow="private emergency authority army vip passenger hov taxi bus coach delivery truck trailer motorcycle evehicle custom1 custom2" speed="22.22" length="3.00" shape="6492.48,7475.19 6492.34,7478.18"/>
        <lane id=":1131595503_1_2" index="2" allow="private emergency authority army vip passenger hov taxi bus coach delivery truck trailer motorcycle evehicle custom1 custom2" speed="22.22" length="3.00" shape="6489.29,7475.04 6489.14,7478.04"/>
    </edge>
    <edge id=":11346652820_0" function="internal">
        <lane id=":11346652820_0_0" index="0" allow="private emergency authority army vip passenger hov taxi bus coach delivery truck trailer motorcycle evehicle custom1 custom2" speed="25.00" length="8.46" shape="9894.11,4739.53 9895.71,4737.36 9895.88,4735.17 9896.04,4732.98 9897.66,4730.83"/>
        <lane id=":11346652820_0_1" index="1" allow="private emergency authority army vip passenger hov taxi bus coach delivery truck trailer motorcycle evehicle custom1 custom2" speed="25.00" length="8.46" shape="9894.11,4739.53 9895.88,4737.87 9896.83,4736.45 9897.79,4735.04 9899.58,4733.39"/>
        <lane id=":11346652820_0_2" index="2" allow="private emergency authority army vip passenger hov taxi bus coach delivery truck trailer motorcycle evehicle custom1 custom2" speed="25.00" length="8.46" shape="9896.06,4742.07 9897.82,4740.41 9898.76,4739.00 9899.72,4737.60 9901.49,4735.96"/>