<?xml version="1.0" encoding="UTF-8"?>

<!-- generated on 2025-04-29 20:35:50 by Eclipse SUMO netedit Version 1.19.0
-->

<additional xmlns:xsi="http://www.w3.org/2001/XMLSchema-instance" xsi:noNamespaceSchemaLocation="http://sumo.dlr.de/xsd/additional_file.xsd">
    <!-- Detectors -->
    <inductionLoop id="0_GEO0B_R_1_RWSTI358742_0" lane="7381788_0" pos="32.99" period="3600.00" file="logs/0_GEO0B_R_1_RWSTI358742_0.xml"/>
    <inductionLoop id="0_GEO0B_R_RWSTI4479_0" lane="7379868_0" pos="43.87" period="3600.00" file="logs/0_GEO0B_R_RWSTI4479_0.xml"/>
    <inductionLoop id="0_GEO0B_R_RWSTI4479_1" lane="7379868_1" pos="43.95" period="3600.00" file="logs/0_GEO0B_R_RWSTI4479_1.xml"/>
    <inductionLoop id="0_RWS01_MONIBAS_0100vwn0300ra_0" lane="7377831_0" pos="345.17" period="3600.00" file="logs/0_RWS01_MONIBAS_0100vwn0300ra_0.xml"/>
    <inductionLoop id="0_RWS01_MONIBAS_0100vwn0300ra_1" lane="7377831_1" pos="345.16" period="3600.00" file="logs/0_RWS01_MONIBAS_0100vwn0300ra_1.xml"/>
    <inductionLoop id="0_RWS01_MONIBAS_0101hrl0013ra_0" lane="7376551_0" pos="281.96" period="3600.00" file="logs/0_RWS01_MONIBAS_0101hrl0013ra_0.xml"/>
    <inductionLoop id="0_RWS01_MONIBAS_0101hrl0013ra_1" lane="7376551_1" pos="278.90" period="3600.00" file="logs/0_RWS01_MONIBAS_0101hrl0013ra_1.xml"/>
    <inductionLoop id="0_RWS01_MONIBAS_0101hrl0013ra_2" lane="7376551_2" pos="276.86" period="3600.00" file="logs/0_RWS01_MONIBAS_0101hrl0013ra_2.xml"/>
    <inductionLoop id="0_RWS01_MONIBAS_0101hrl0013ra_3" lane="7376551_3" pos="278.88" period="3600.00" file="logs/0_RWS01_MONIBAS_0101hrl0013ra_3.xml"/>
    <inductionLoop id="0_RWS01_MONIBAS_0101hrl0022ra_0" lane="651227231_0" pos="1336.62" period="3600.00" file="logs/0_RWS01_MONIBAS_0101hrl0022ra_0.xml"/>
    <inductionLoop id="0_RWS01_MONIBAS_0101hrl0022ra_1" lane="651227231_1" pos="1334.91" period="3600.00" file="logs/0_RWS01_MONIBAS_0101hrl0022ra_1.xml"/>
    <inductionLoop id="0_RWS01_MONIBAS_0101hrl0022ra_2" lane="651227231_2" pos="1335.44" period="3600.00" file="logs/0_RWS01_MONIBAS_0101hrl0022ra_2.xml"/>
    <inductionLoop id="0_RWS01_MONIBAS_0101hrl0050ra_0" lane="7041282_0" pos="1336.73" period="3600.00" file="logs/0_RWS01_MONIBAS_0101hrl0050ra_0.xml"/>
    <inductionLoop id="0_RWS01_MONIBAS_0101hrl0050ra_1" lane="7041282_1" pos="1334.21" period="3600.00" file="logs/0_RWS01_MONIBAS_0101hrl0050ra_1.xml"/>
    <inductionLoop id="0_RWS01_MONIBAS_0101hrl0050ra_2" lane="7041282_2" pos="1333.95" period="3600.00" file="logs/0_RWS01_MONIBAS_0101hrl0050ra_2.xml"/>
    <inductionLoop id="0_RWS01_MONIBAS_0101hrl0074ra_0" lane="7039964_0" pos="1070.57" period="3600.00" file="logs/0_RWS01_MONIBAS_0101hrl0074ra_0.xml"/>
    <inductionLoop id="0_RWS01_MONIBAS_0101hrl0074ra_1" lane="7039964_1" pos="1066.85" period="3600.00" file="logs/0_RWS01_MONIBAS_0101hrl0074ra_1.xml"/>
    <inductionLoop id="0_RWS01_MONIBAS_0101hrl0074ra_2" lane="7039964_2" pos="1064.42" period="3600.00" file="logs/0_RWS01_MONIBAS_0101hrl0074ra_2.xml"/>
    <inductionLoop id="0_RWS01_MONIBAS_0101hrl0074ra_3" lane="7039964_3" pos="1064.24" period="3600.00" file="logs/0_RWS01_MONIBAS_0101hrl0074ra_3.xml"/>
    <inductionLoop id="0_RWS01_MONIBAS_0101hrl0120ra_0" lane="1354663630_0" pos="12.73" period="3600.00" file="logs/0_RWS01_MONIBAS_0101hrl0120ra_0.xml"/>
    <inductionLoop id="0_RWS01_MONIBAS_0101hrl0120ra_1" lane="1354663630_1" pos="10.82" period="3600.00" file="logs/0_RWS01_MONIBAS_0101hrl0120ra_1.xml"/>
    <inductionLoop id="0_RWS01_MONIBAS_0101hrl0120ra_2" lane="1354663630_2" pos="12.75" period="3600.00" file="logs/0_RWS01_MONIBAS_0101hrl0120ra_2.xml"/>
    <inductionLoop id="0_RWS01_MONIBAS_0101hrl0135ra_0" lane="7044782_0" pos="146.72" period="3600.00" file="logs/0_RWS01_MONIBAS_0101hrl0135ra_0.xml"/>
    <inductionLoop id="0_RWS01_MONIBAS_0101hrl0135ra_1" lane="7044782_1" pos="143.76" period="3600.00" file="logs/0_RWS01_MONIBAS_0101hrl0135ra_1.xml"/>
    <inductionLoop id="0_RWS01_MONIBAS_0101hrl0135ra_2" lane="7044782_2" pos="141.03" period="3600.00" file="logs/0_RWS01_MONIBAS_0101hrl0135ra_2.xml"/>
    <inductionLoop id="0_RWS01_MONIBAS_0101hrl0135ra_3" lane="7044782_3" pos="141.18" period="3600.00" file="logs/0_RWS01_MONIBAS_0101hrl0135ra_3.xml"/>
    <inductionLoop id="0_RWS01_MONIBAS_0101hrl0135ra_4" lane="7044782_4" pos="144.20" period="3600.00" file="logs/0_RWS01_MONIBAS_0101hrl0135ra_4.xml"/>
    <inductionLoop id="0_RWS01_MONIBAS_0101hrl0144ra_0" lane="27381173_0" pos="189.48" period="3600.00" file="logs/0_RWS01_MONIBAS_0101hrl0144ra_0.xml"/>
    <inductionLoop id="0_RWS01_MONIBAS_0101hrl0144ra_1" lane="27381173_1" pos="186.36" period="3600.00" file="logs/0_RWS01_MONIBAS_0101hrl0144ra_1.xml"/>
    <inductionLoop id="0_RWS01_MONIBAS_0101hrl0144ra_2" lane="27381173_2" pos="183.49" period="3600.00" file="logs/0_RWS01_MONIBAS_0101hrl0144ra_2.xml"/>
    <inductionLoop id="0_RWS01_MONIBAS_0101hrl0144ra_3" lane="27381173_3" pos="183.49" period="3600.00" file="logs/0_RWS01_MONIBAS_0101hrl0144ra_3.xml"/>
    <inductionLoop id="0_RWS01_MONIBAS_0101hrl0144ra_4" lane="27381173_4" pos="186.35" period="3600.00" file="logs/0_RWS01_MONIBAS_0101hrl0144ra_4.xml"/>
    <inductionLoop id="0_RWS01_MONIBAS_0101hrl0151ra_0" lane="87949238_0" pos="203.33" period="3600.00" file="logs/0_RWS01_MONIBAS_0101hrl0151ra_0.xml"/>
    <inductionLoop id="0_RWS01_MONIBAS_0101hrl0151ra_1" lane="87949238_1" pos="200.16" period="3600.00" file="logs/0_RWS01_MONIBAS_0101hrl0151ra_1.xml"/>
    <inductionLoop id="0_RWS01_MONIBAS_0101hrl0151ra_2" lane="87949238_2" pos="197.07" period="3600.00" file="logs/0_RWS01_MONIBAS_0101hrl0151ra_2.xml"/>
    <inductionLoop id="0_RWS01_MONIBAS_0101hrl0151ra_3" lane="87949238_3" pos="194.93" period="3600.00" file="logs/0_RWS01_MONIBAS_0101hrl0151ra_3.xml"/>
    <inductionLoop id="0_RWS01_MONIBAS_0101hrl0151ra_4" lane="87949238_4" pos="197.03" period="3600.00" file="logs/0_RWS01_MONIBAS_0101hrl0151ra_4.xml"/>
    <inductionLoop id="0_RWS01_MONIBAS_0101hrl0170ra_0" lane="1359663062_0" pos="170.26" period="3600.00" file="logs/0_RWS01_MONIBAS_0101hrl0170ra_0.xml"/>
    <inductionLoop id="0_RWS01_MONIBAS_0101hrl0170ra_1" lane="1359663062_1" pos="167.06" period="3600.00" file="logs/0_RWS01_MONIBAS_0101hrl0170ra_1.xml"/>
    <inductionLoop id="0_RWS01_MONIBAS_0101hrl0170ra_2" lane="1359663062_2" pos="163.85" period="3600.00" file="logs/0_RWS01_MONIBAS_0101hrl0170ra_2.xml"/>
    <inductionLoop id="0_RWS01_MONIBAS_0101hrl0170ra_3" lane="1359663062_3" pos="160.84" period="3600.00" file="logs/0_RWS01_MONIBAS_0101hrl0170ra_3.xml"/>
    <inductionLoop id="0_RWS01_MONIBAS_0101hrl0170ra_4" lane="1359663062_4" pos="163.86" period="3600.00" file="logs/0_RWS01_MONIBAS_0101hrl0170ra_4.xml"/>
    <inductionLoop id="0_RWS01_MONIBAS_0101hrl0181ra_0" lane="1093953831_0" pos="1288.22" period="3600.00" file="logs/0_RWS01_MONIBAS_0101hrl0181ra_0.xml"/>
    <inductionLoop id="0_RWS01_MONIBAS_0101hrl0181ra_1" lane="1093953831_1" pos="1287.77" period="3600.00" file="logs/0_RWS01_MONIBAS_0101hrl0181ra_1.xml"/>
    <inductionLoop id="0_RWS01_MONIBAS_0101hrl0181ra_2" lane="1093953831_2" pos="1289.27" period="3600.00" file="logs/0_RWS01_MONIBAS_0101hrl0181ra_2.xml"/>
    <inductionLoop id="0_RWS01_MONIBAS_0101hrl0181ra_3" lane="1093953831_3" pos="1292.70" period="3600.00" file="logs/0_RWS01_MONIBAS_0101hrl0181ra_3.xml"/>
    <inductionLoop id="0_RWS01_MONIBAS_0101hrl0201ra_0" lane="1359663067_0" pos="671.96" period="3600.00" file="logs/0_RWS01_MONIBAS_0101hrl0201ra_0.xml"/>
    <inductionLoop id="0_RWS01_MONIBAS_0101hrl0201ra_1" lane="1359663067_1" pos="668.74" period="3600.00" file="logs/0_RWS01_MONIBAS_0101hrl0201ra_1.xml"/>
    <inductionLoop id="0_RWS01_MONIBAS_0101hrl0201ra_2" lane="1359663067_2" pos="665.66" period="3600.00" file="logs/0_RWS01_MONIBAS_0101hrl0201ra_2.xml"/>
    <inductionLoop id="0_RWS01_MONIBAS_0101hrl0201ra_3" lane="1359663067_3" pos="668.67" period="3600.00" file="logs/0_RWS01_MONIBAS_0101hrl0201ra_3.xml"/>
    <inductionLoop id="0_RWS01_MONIBAS_0101hrl0201ra_4" lane="1359663067_4" pos="671.84" period="3600.00" file="logs/0_RWS01_MONIBAS_0101hrl0201ra_4.xml"/>
    <inductionLoop id="0_RWS01_MONIBAS_0101hrl0208ra_0" lane="7381745_0" pos="49.53" period="3600.00" file="logs/0_RWS01_MONIBAS_0101hrl0208ra_0.xml"/>
    <inductionLoop id="0_RWS01_MONIBAS_0101hrl0208ra_1" lane="7381745_1" pos="49.53" period="3600.00" file="logs/0_RWS01_MONIBAS_0101hrl0208ra_1.xml"/>
    <inductionLoop id="0_RWS01_MONIBAS_0101hrl0208ra_2" lane="7381745_2" pos="49.53" period="3600.00" file="logs/0_RWS01_MONIBAS_0101hrl0208ra_2.xml"/>
    <inductionLoop id="0_RWS01_MONIBAS_0101hrl0208ra_3" lane="7381745_3" pos="49.53" period="3600.00" file="logs/0_RWS01_MONIBAS_0101hrl0208ra_3.xml"/>
    <inductionLoop id="0_RWS01_MONIBAS_0101hrl0208ra_4" lane="7381745_4" pos="54.76" period="3600.00" file="logs/0_RWS01_MONIBAS_0101hrl0208ra_4.xml"/>
    <inductionLoop id="0_RWS01_MONIBAS_0101hrl0222ra_0" lane="7381819_0" pos="16.94" period="3600.00" file="logs/0_RWS01_MONIBAS_0101hrl0222ra_0.xml"/>
    <inductionLoop id="0_RWS01_MONIBAS_0101hrl0222ra_1" lane="7381819_1" pos="17.08" period="3600.00" file="logs/0_RWS01_MONIBAS_0101hrl0222ra_1.xml"/>
    <inductionLoop id="0_RWS01_MONIBAS_0101hrl0222ra_2" lane="7381819_2" pos="17.14" period="3600.00" file="logs/0_RWS01_MONIBAS_0101hrl0222ra_2.xml"/>
    <inductionLoop id="0_RWS01_MONIBAS_0101hrl0222ra_3" lane="7381819_3" pos="17.14" period="3600.00" file="logs/0_RWS01_MONIBAS_0101hrl0222ra_3.xml"/>
    <inductionLoop id="0_RWS01_MONIBAS_0101hrl0239ra_0" lane="1020896904_0" pos="285.05" period="3600.00" file="logs/0_RWS01_MONIBAS_0101hrl0239ra_0.xml"/>
    <inductionLoop id="0_RWS01_MONIBAS_0101hrl0239ra_1" lane="1020896904_1" pos="281.86" period="3600.00" file="logs/0_RWS01_MONIBAS_0101hrl0239ra_1.xml"/>
    <inductionLoop id="0_RWS01_MONIBAS_0101hrl0239ra_2" lane="1020896904_2" pos="278.67" period="3600.00" file="logs/0_RWS01_MONIBAS_0101hrl0239ra_2.xml"/>
    <inductionLoop id="0_RWS01_MONIBAS_0101hrl0239ra_3" lane="1020896904_3" pos="281.89" period="3600.00" file="logs/0_RWS01_MONIBAS_0101hrl0239ra_3.xml"/>
    <inductionLoop id="0_RWS01_MONIBAS_0101hrl0253ra_0" lane="491586073_0" pos="92.11" period="3600.00" file="logs/0_RWS01_MONIBAS_0101hrl0253ra_0.xml"/>
    <inductionLoop id="0_RWS01_MONIBAS_0101hrl0253ra_1" lane="491586073_1" pos="89.68" period="3600.00" file="logs/0_RWS01_MONIBAS_0101hrl0253ra_1.xml"/>
    <inductionLoop id="0_RWS01_MONIBAS_0101hrl0253ra_2" lane="491586073_2" pos="88.56" period="3600.00" file="logs/0_RWS01_MONIBAS_0101hrl0253ra_2.xml"/>
    <inductionLoop id="0_RWS01_MONIBAS_0101hrl0253ra_3" lane="491586073_3" pos="89.68" period="3600.00" file="logs/0_RWS01_MONIBAS_0101hrl0253ra_3.xml"/>
    <inductionLoop id="0_RWS01_MONIBAS_0101hrl0261ra_0" lane="75919470_0" pos="620.62" period="3600.00" file="logs/0_RWS01_MONIBAS_0101hrl0261ra_0.xml"/>
    <inductionLoop id="0_RWS01_MONIBAS_0101hrl0261ra_1" lane="75919470_1" pos="617.68" period="3600.00" file="logs/0_RWS01_MONIBAS_0101hrl0261ra_1.xml"/>
    <inductionLoop id="0_RWS01_MONIBAS_0101hrl0261ra_2" lane="75919470_2" pos="615.72" period="3600.00" file="logs/0_RWS01_MONIBAS_0101hrl0261ra_2.xml"/>
    <inductionLoop id="0_RWS01_MONIBAS_0101hrl0261ra_3" lane="75919470_3" pos="617.85" period="3600.00" file="logs/0_RWS01_MONIBAS_0101hrl0261ra_3.xml"/>
    <inductionLoop id="10_RWS01_MONIBAS_0100vwd0146ra_0" lane="761458305_0" pos="31.45" period="3600.00" file="logs/10_RWS01_MONIBAS_0100vwd0146ra_0.xml"/>
    <inductionLoop id="10_RWS01_MONIBAS_0101hrl0101ra_0" lane="495536084_0" pos="936.37" period="3600.00" file="logs/10_RWS01_MONIBAS_0101hrl0101ra_0.xml"/>
    <inductionLoop id="10_RWS01_MONIBAS_0101hrl0101ra_1" lane="495536084_1" pos="933.96" period="3600.00" file="logs/10_RWS01_MONIBAS_0101hrl0101ra_1.xml"/>
    <inductionLoop id="10_RWS01_MONIBAS_0101hrl0101ra_2" lane="495536084_2" pos="932.86" period="3600.00" file="logs/10_RWS01_MONIBAS_0101hrl0101ra_2.xml"/>
    <inductionLoop id="10_RWS01_MONIBAS_0101hrl0101ra_3" lane="495536084_3" pos="934.03" period="3600.00" file="logs/10_RWS01_MONIBAS_0101hrl0101ra_3.xml"/>
    <inductionLoop id="10_RWS01_MONIBAS_0101hrl0304ra_1_0" lane="39911403_0" pos="353.93" period="3600.00" file="logs/10_RWS01_MONIBAS_0101hrl0304ra_1_0.xml"/>
    <inductionLoop id="10_RWS01_MONIBAS_0101hrl0304ra_1_1" lane="39911403_1" pos="352.55" period="3600.00" file="logs/10_RWS01_MONIBAS_0101hrl0304ra_1_1.xml"/>
    <inductionLoop id="10_RWS01_MONICA_00D00A02045AD0050011_0" lane="7044098_0" pos="276.00" period="3600.00" file="logs/10_RWS01_MONICA_00D00A02045AD0050011_0.xml"/>
    <inductionLoop id="10_RWS01_MONICA_00D00A02045AD0050011_1" lane="7044098_1" pos="272.16" period="3600.00" file="logs/10_RWS01_MONICA_00D00A02045AD0050011_1.xml"/>
    <inductionLoop id="10_RWS01_MONICA_00D00A02045AD0050011_2" lane="7044098_2" pos="271.25" period="3600.00" file="logs/10_RWS01_MONICA_00D00A02045AD0050011_2.xml"/>
    <inductionLoop id="10_RWS01_MONICA_00D00A02045AD0050011_3" lane="7044098_3" pos="273.17" period="3600.00" file="logs/10_RWS01_MONICA_00D00A02045AD0050011_3.xml"/>
    <inductionLoop id="10_RWS01_MONICA_00D00A023014D0050005_0" lane="7044421_0" pos="34.64" period="3600.00" file="logs/10_RWS01_MONICA_00D00A023014D0050005_0.xml"/>
    <inductionLoop id="10_RWS01_MONICA_00D00A023014D0050005_1" lane="7044421_1" pos="31.67" period="3600.00" file="logs/10_RWS01_MONICA_00D00A023014D0050005_1.xml"/>
    <inductionLoop id="10_RWS01_MONICA_00D00A023014D0050005_2" lane="7044421_2" pos="31.56" period="3600.00" file="logs/10_RWS01_MONICA_00D00A023014D0050005_2.xml"/>
    <inductionLoop id="10_RWS01_MONICA_00D00A023014D0050005_3" lane="7044421_3" pos="34.08" period="3600.00" file="logs/10_RWS01_MONICA_00D00A023014D0050005_3.xml"/>
    <inductionLoop id="11_RWS01_MONIBAS_0100vwd0173ra_0" lane="1223241456_0" pos="92.36" period="3600.00" file="logs/11_RWS01_MONIBAS_0100vwd0173ra_0.xml"/>
    <inductionLoop id="11_RWS01_MONIBAS_0101hrl0105ra_0" lane="495536084_0" pos="529.37" period="3600.00" file="logs/11_RWS01_MONIBAS_0101hrl0105ra_0.xml"/>
    <inductionLoop id="11_RWS01_MONIBAS_0101hrl0105ra_1" lane="495536084_1" pos="526.97" period="3600.00" file="logs/11_RWS01_MONIBAS_0101hrl0105ra_1.xml"/>
    <inductionLoop id="11_RWS01_MONIBAS_0101hrl0105ra_2" lane="495536084_2" pos="525.89" period="3600.00" file="logs/11_RWS01_MONIBAS_0101hrl0105ra_2.xml"/>
    <inductionLoop id="11_RWS01_MONIBAS_0101hrl0105ra_3" lane="495536084_3" pos="527.08" period="3600.00" file="logs/11_RWS01_MONIBAS_0101hrl0105ra_3.xml"/>
    <inductionLoop id="11_RWS01_MONIBAS_0101hrl0307ra_0" lane="39911403_0" pos="492.65" period="3600.00" file="logs/11_RWS01_MONIBAS_0101hrl0307ra_0.xml"/>
    <inductionLoop id="11_RWS01_MONIBAS_0101hrl0307ra_1" lane="39911403_1" pos="491.08" period="3600.00" file="logs/11_RWS01_MONIBAS_0101hrl0307ra_1.xml"/>
    <inductionLoop id="11_RWS01_MONICA_00D00A023014D0050009_0" lane="7044421_0" pos="34.64" period="3600.00" file="logs/11_RWS01_MONICA_00D00A023014D0050009_0.xml"/>
    <inductionLoop id="11_RWS01_MONICA_00D00A023014D0050009_1" lane="7044421_1" pos="31.67" period="3600.00" file="logs/11_RWS01_MONICA_00D00A023014D0050009_1.xml"/>
    <inductionLoop id="11_RWS01_MONICA_00D00A023014D0050009_2" lane="7044421_2" pos="31.56" period="3600.00" file="logs/11_RWS01_MONICA_00D00A023014D0050009_2.xml"/>
    <inductionLoop id="11_RWS01_MONICA_00D00A023014D0050009_3" lane="7044421_3" pos="34.08" period="3600.00" file="logs/11_RWS01_MONICA_00D00A023014D0050009_3.xml"/>
    <inductionLoop id="12_RWS01_MONIBAS_0100vwd0197ra_0" lane="272320487_0" pos="83.01" period="3600.00" file="logs/12_RWS01_MONIBAS_0100vwd0197ra_0.xml"/>
    <inductionLoop id="12_RWS01_MONIBAS_0101hrl0109ra_0" lane="495536084_0" pos="163.40" period="3600.00" file="logs/12_RWS01_MONIBAS_0101hrl0109ra_0.xml"/>
    <inductionLoop id="12_RWS01_MONIBAS_0101hrl0109ra_1" lane="495536084_1" pos="161.01" period="3600.00" file="logs/12_RWS01_MONIBAS_0101hrl0109ra_1.xml"/>
    <inductionLoop id="12_RWS01_MONIBAS_0101hrl0109ra_2" lane="495536084_2" pos="159.93" period="3600.00" file="logs/12_RWS01_MONIBAS_0101hrl0109ra_2.xml"/>
    <inductionLoop id="12_RWS01_MONIBAS_0101hrl0109ra_3" lane="495536084_3" pos="161.12" period="3600.00" file="logs/12_RWS01_MONIBAS_0101hrl0109ra_3.xml"/>
    <inductionLoop id="12_RWS01_MONIBAS_0101hrl0308ra_0" lane="39911403_0" pos="340.55" period="3600.00" file="logs/12_RWS01_MONIBAS_0101hrl0308ra_0.xml"/>
    <inductionLoop id="12_RWS01_MONIBAS_0101hrl0308ra_1" lane="39911403_1" pos="339.25" period="3600.00" file="logs/12_RWS01_MONIBAS_0101hrl0308ra_1.xml"/>
    <inductionLoop id="12_RWS01_MONICA_00D00A023014D005000D_0" lane="7044421_0" pos="34.64" period="3600.00" file="logs/12_RWS01_MONICA_00D00A023014D005000D_0.xml"/>
    <inductionLoop id="12_RWS01_MONICA_00D00A023014D005000D_1" lane="7044421_1" pos="31.67" period="3600.00" file="logs/12_RWS01_MONICA_00D00A023014D005000D_1.xml"/>
    <inductionLoop id="12_RWS01_MONICA_00D00A023014D005000D_2" lane="7044421_2" pos="31.56" period="3600.00" file="logs/12_RWS01_MONICA_00D00A023014D005000D_2.xml"/>
    <inductionLoop id="12_RWS01_MONICA_00D00A023014D005000D_3" lane="7044421_3" pos="34.08" period="3600.00" file="logs/12_RWS01_MONICA_00D00A023014D005000D_3.xml"/>
    <inductionLoop id="13_RWS01_MONIBAS_0100vws0166ra_0" lane="7361678_0" pos="23.59" period="3600.00" file="logs/13_RWS01_MONIBAS_0100vws0166ra_0.xml"/>
    <inductionLoop id="13_RWS01_MONIBAS_0100vws0166ra_1" lane="7361678_1" pos="20.45" period="3600.00" file="logs/13_RWS01_MONIBAS_0100vws0166ra_1.xml"/>
    <inductionLoop id="13_RWS01_MONIBAS_0101hrl0112ra_1_0" lane="1354663630_0" pos="852.91" period="3600.00" file="logs/13_RWS01_MONIBAS_0101hrl0112ra_1_0.xml"/>
    <inductionLoop id="13_RWS01_MONIBAS_0101hrl0112ra_1_1" lane="1354663630_1" pos="850.89" period="3600.00" file="logs/13_RWS01_MONIBAS_0101hrl0112ra_1_1.xml"/>
    <inductionLoop id="13_RWS01_MONIBAS_0101hrl0112ra_1_2" lane="1354663630_2" pos="852.72" period="3600.00" file="logs/13_RWS01_MONIBAS_0101hrl0112ra_1_2.xml"/>
    <inductionLoop id="13_RWS01_MONIBAS_0101hrl0312ra_0" lane="7377786_0" pos="238.48" period="3600.00" file="logs/13_RWS01_MONIBAS_0101hrl0312ra_0.xml"/>
    <inductionLoop id="13_RWS01_MONIBAS_0101hrl0312ra_1" lane="7377786_1" pos="235.66" period="3600.00" file="logs/13_RWS01_MONIBAS_0101hrl0312ra_1.xml"/>
    <inductionLoop id="13_RWS01_MONIBAS_0101hrl0312ra_2" lane="7377786_2" pos="235.63" period="3600.00" file="logs/13_RWS01_MONIBAS_0101hrl0312ra_2.xml"/>
    <inductionLoop id="13_RWS01_MONICA_00D00A023014D0050011_0" lane="7044421_0" pos="34.64" period="3600.00" file="logs/13_RWS01_MONICA_00D00A023014D0050011_0.xml"/>
    <inductionLoop id="13_RWS01_MONICA_00D00A023014D0050011_1" lane="7044421_1" pos="31.67" period="3600.00" file="logs/13_RWS01_MONICA_00D00A023014D0050011_1.xml"/>
    <inductionLoop id="13_RWS01_MONICA_00D00A023014D0050011_2" lane="7044421_2" pos="31.56" period="3600.00" file="logs/13_RWS01_MONICA_00D00A023014D0050011_2.xml"/>
    <inductionLoop id="13_RWS01_MONICA_00D00A023014D0050011_3" lane="7044421_3" pos="34.08" period="3600.00" file="logs/13_RWS01_MONICA_00D00A023014D0050011_3.xml"/>
    <inductionLoop id="14_RWS01_MONIBAS_0101hrl0115ra_0" lane="1354663630_0" pos="552.77" period="3600.00" file="logs/14_RWS01_MONIBAS_0101hrl0115ra_0.xml"/>
    <inductionLoop id="14_RWS01_MONIBAS_0101hrl0115ra_1" lane="1354663630_1" pos="550.91" period="3600.00" file="logs/14_RWS01_MONIBAS_0101hrl0115ra_1.xml"/>
    <inductionLoop id="14_RWS01_MONIBAS_0101hrl0115ra_2" lane="1354663630_2" pos="552.90" period="3600.00" file="logs/14_RWS01_MONIBAS_0101hrl0115ra_2.xml"/>
    <inductionLoop id="14_RWS01_MONIBAS_0101hrl0222rb_0" lane="1269325981_0" pos="21.18" period="3600.00" file="logs/14_RWS01_MONIBAS_0101hrl0222rb_0.xml"/>
    <inductionLoop id="14_RWS01_MONIBAS_0101hrl0314ra_0" lane="7377786_0" pos="68.46" period="3600.00" file="logs/14_RWS01_MONIBAS_0101hrl0314ra_0.xml"/>
    <inductionLoop id="14_RWS01_MONIBAS_0101hrl0314ra_1" lane="7377786_1" pos="65.66" period="3600.00" file="logs/14_RWS01_MONIBAS_0101hrl0314ra_1.xml"/>
    <inductionLoop id="14_RWS01_MONIBAS_0101hrl0314ra_2" lane="7377786_2" pos="65.66" period="3600.00" file="logs/14_RWS01_MONIBAS_0101hrl0314ra_2.xml"/>
    <inductionLoop id="15_RWS01_MONIBAS_0101hrl0319ra_0" lane="7376760_0" pos="576.14" period="3600.00" file="logs/15_RWS01_MONIBAS_0101hrl0319ra_0.xml"/>
    <inductionLoop id="15_RWS01_MONIBAS_0101hrl0319ra_1" lane="7376760_1" pos="575.20" period="3600.00" file="logs/15_RWS01_MONIBAS_0101hrl0319ra_1.xml"/>
    <inductionLoop id="15_RWS01_MONICA_00D00204D40028200005_0" lane="7047738_0" pos="478.41" period="3600.00" file="logs/15_RWS01_MONICA_00D00204D40028200005_0.xml"/>
    <inductionLoop id="15_RWS01_MONICA_00D00204D40028200005_1" lane="7047738_1" pos="478.66" period="3600.00" file="logs/15_RWS01_MONICA_00D00204D40028200005_1.xml"/>
    <inductionLoop id="15_RWS01_MONICA_10D00A015C3CD0050005_0" lane="7039960#1_0" pos="597.65" period="3600.00" file="logs/15_RWS01_MONICA_10D00A015C3CD0050005_0.xml"/>
    <inductionLoop id="15_RWS01_MONICA_10D00A015C3CD0050005_1" lane="7039960#1_1" pos="593.94" period="3600.00" file="logs/15_RWS01_MONICA_10D00A015C3CD0050005_1.xml"/>
    <inductionLoop id="15_RWS01_MONICA_10D00A015C3CD0050005_2" lane="7039960#1_2" pos="596.37" period="3600.00" file="logs/15_RWS01_MONICA_10D00A015C3CD0050005_2.xml"/>
    <inductionLoop id="16_RWS01_MONICA_00D00204D40028200009_0" lane="7047738_0" pos="478.41" period="3600.00" file="logs/16_RWS01_MONICA_00D00204D40028200009_0.xml"/>
    <inductionLoop id="16_RWS01_MONICA_00D00204D40028200009_1" lane="7047738_1" pos="478.66" period="3600.00" file="logs/16_RWS01_MONICA_00D00204D40028200009_1.xml"/>
    <inductionLoop id="16_RWS01_MONICA_10D00A015C3CD0050009_0" lane="7039960#1_0" pos="597.65" period="3600.00" file="logs/16_RWS01_MONICA_10D00A015C3CD0050009_0.xml"/>
    <inductionLoop id="16_RWS01_MONICA_10D00A015C3CD0050009_1" lane="7039960#1_1" pos="593.94" period="3600.00" file="logs/16_RWS01_MONICA_10D00A015C3CD0050009_1.xml"/>
    <inductionLoop id="16_RWS01_MONICA_10D00A015C3CD0050009_2" lane="7039960#1_2" pos="596.37" period="3600.00" file="logs/16_RWS01_MONICA_10D00A015C3CD0050009_2.xml"/>
    <inductionLoop id="16_RWS01_MONICA_10D00A04C00F68200005_0" lane="7377831_0" pos="29.22" period="3600.00" file="logs/16_RWS01_MONICA_10D00A04C00F68200005_0.xml"/>
    <inductionLoop id="16_RWS01_MONICA_10D00A04C00F68200005_1" lane="7377831_1" pos="29.21" period="3600.00" file="logs/16_RWS01_MONICA_10D00A04C00F68200005_1.xml"/>
    <inductionLoop id="17_RWS01_MONICA_00D00A024C4B10200005_0" lane="1266120162_0" pos="152.41" period="3600.00" file="logs/17_RWS01_MONICA_00D00A024C4B10200005_0.xml"/>
    <inductionLoop id="17_RWS01_MONICA_10D00A015C3CD005000D_0" lane="7039960#1_0" pos="597.65" period="3600.00" file="logs/17_RWS01_MONICA_10D00A015C3CD005000D_0.xml"/>
    <inductionLoop id="17_RWS01_MONICA_10D00A015C3CD005000D_1" lane="7039960#1_1" pos="593.94" period="3600.00" file="logs/17_RWS01_MONICA_10D00A015C3CD005000D_1.xml"/>
    <inductionLoop id="17_RWS01_MONICA_10D00A015C3CD005000D_2" lane="7039960#1_2" pos="596.37" period="3600.00" file="logs/17_RWS01_MONICA_10D00A015C3CD005000D_2.xml"/>
    <inductionLoop id="17_RWS01_MONICA_10D00A04C00F68200009_0" lane="7377831_0" pos="29.22" period="3600.00" file="logs/17_RWS01_MONICA_10D00A04C00F68200009_0.xml"/>
    <inductionLoop id="17_RWS01_MONICA_10D00A04C00F68200009_1" lane="7377831_1" pos="29.21" period="3600.00" file="logs/17_RWS01_MONICA_10D00A04C00F68200009_1.xml"/>
    <inductionLoop id="18_RWS01_MONICA_00D00A031C3210200005_0" lane="1188637435_0" pos="29.25" period="3600.00" file="logs/18_RWS01_MONICA_00D00A031C3210200005_0.xml"/>
    <inductionLoop id="18_RWS01_MONICA_00D00A031C3210200005_1" lane="1188637435_1" pos="26.11" period="3600.00" file="logs/18_RWS01_MONICA_00D00A031C3210200005_1.xml"/>
    <inductionLoop id="18_RWS01_MONICA_10D00A017001D0050005_0" lane="7039960#1_0" pos="165.64" period="3600.00" file="logs/18_RWS01_MONICA_10D00A017001D0050005_0.xml"/>
    <inductionLoop id="18_RWS01_MONICA_10D00A017001D0050005_1" lane="7039960#1_1" pos="162.42" period="3600.00" file="logs/18_RWS01_MONICA_10D00A017001D0050005_1.xml"/>
    <inductionLoop id="18_RWS01_MONICA_10D00A017001D0050005_2" lane="7039960#1_2" pos="165.34" period="3600.00" file="logs/18_RWS01_MONICA_10D00A017001D0050005_2.xml"/>
    <inductionLoop id="18_RWS01_MONICA_10D00A04C00FD0050005_0" lane="7377832_0" pos="31.00" period="3600.00" file="logs/18_RWS01_MONICA_10D00A04C00FD0050005_0.xml"/>
    <inductionLoop id="18_RWS01_MONICA_10D00A04C00FD0050005_1" lane="7377832_1" pos="30.99" period="3600.00" file="logs/18_RWS01_MONICA_10D00A04C00FD0050005_1.xml"/>
    <inductionLoop id="19_RWS01_MONICA_00D00A031C3210200009_0" lane="1188637435_0" pos="29.25" period="3600.00" file="logs/19_RWS01_MONICA_00D00A031C3210200009_0.xml"/>
    <inductionLoop id="19_RWS01_MONICA_00D00A031C3210200009_1" lane="1188637435_1" pos="26.11" period="3600.00" file="logs/19_RWS01_MONICA_00D00A031C3210200009_1.xml"/>
    <inductionLoop id="19_RWS01_MONICA_10D00A04C00FD0050009_0" lane="7377832_0" pos="31.00" period="3600.00" file="logs/19_RWS01_MONICA_10D00A04C00FD0050009_0.xml"/>
    <inductionLoop id="19_RWS01_MONICA_10D00A04C00FD0050009_1" lane="7377832_1" pos="30.99" period="3600.00" file="logs/19_RWS01_MONICA_10D00A04C00FD0050009_1.xml"/>
    <inductionLoop id="1_GEO0B_R_RWSTI358754_0" lane="228453578_0" pos="29.45" period="3600.00" file="logs/1_GEO0B_R_RWSTI358754_0.xml"/>
    <inductionLoop id="1_GEO0K_K_RWSTI358830_0" lane="293658316_0" pos="78.56" period="3600.00" file="logs/1_GEO0K_K_RWSTI358830_0.xml"/>
    <inductionLoop id="1_RWS01_MONIBAS_0100vwn0302ra_0" lane="7377831_0" pos="189.19" period="3600.00" file="logs/1_RWS01_MONIBAS_0100vwn0302ra_0.xml"/>
    <inductionLoop id="1_RWS01_MONIBAS_0100vwn0302ra_1" lane="7377831_1" pos="189.18" period="3600.00" file="logs/1_RWS01_MONIBAS_0100vwn0302ra_1.xml"/>
    <inductionLoop id="1_RWS01_MONIBAS_0101hrl0017ra_0" lane="7376547_0" pos="197.68" period="3600.00" file="logs/1_RWS01_MONIBAS_0101hrl0017ra_0.xml"/>
    <inductionLoop id="1_RWS01_MONIBAS_0101hrl0017ra_1" lane="7376547_1" pos="195.82" period="3600.00" file="logs/1_RWS01_MONIBAS_0101hrl0017ra_1.xml"/>
    <inductionLoop id="1_RWS01_MONIBAS_0101hrl0017ra_2" lane="7376547_2" pos="197.85" period="3600.00" file="logs/1_RWS01_MONIBAS_0101hrl0017ra_2.xml"/>
    <inductionLoop id="1_RWS01_MONIBAS_0101hrl0027ra_0" lane="651227231_0" pos="797.05" period="3600.00" file="logs/1_RWS01_MONIBAS_0101hrl0027ra_0.xml"/>
    <inductionLoop id="1_RWS01_MONIBAS_0101hrl0027ra_1" lane="651227231_1" pos="795.72" period="3600.00" file="logs/1_RWS01_MONIBAS_0101hrl0027ra_1.xml"/>
    <inductionLoop id="1_RWS01_MONIBAS_0101hrl0027ra_2" lane="651227231_2" pos="796.64" period="3600.00" file="logs/1_RWS01_MONIBAS_0101hrl0027ra_2.xml"/>
    <inductionLoop id="1_RWS01_MONIBAS_0101hrl0056ra_0" lane="7041282_0" pos="723.20" period="3600.00" file="logs/1_RWS01_MONIBAS_0101hrl0056ra_0.xml"/>
    <inductionLoop id="1_RWS01_MONIBAS_0101hrl0056ra_1" lane="7041282_1" pos="721.25" period="3600.00" file="logs/1_RWS01_MONIBAS_0101hrl0056ra_1.xml"/>
    <inductionLoop id="1_RWS01_MONIBAS_0101hrl0056ra_2" lane="7041282_2" pos="721.56" period="3600.00" file="logs/1_RWS01_MONIBAS_0101hrl0056ra_2.xml"/>
    <inductionLoop id="1_RWS01_MONIBAS_0101hrl0077ra_0" lane="7039964_0" pos="771.88" period="3600.00" file="logs/1_RWS01_MONIBAS_0101hrl0077ra_0.xml"/>
    <inductionLoop id="1_RWS01_MONIBAS_0101hrl0077ra_1" lane="7039964_1" pos="768.51" period="3600.00" file="logs/1_RWS01_MONIBAS_0101hrl0077ra_1.xml"/>
    <inductionLoop id="1_RWS01_MONIBAS_0101hrl0077ra_2" lane="7039964_2" pos="766.44" period="3600.00" file="logs/1_RWS01_MONIBAS_0101hrl0077ra_2.xml"/>
    <inductionLoop id="1_RWS01_MONIBAS_0101hrl0077ra_3" lane="7039964_3" pos="766.62" period="3600.00" file="logs/1_RWS01_MONIBAS_0101hrl0077ra_3.xml"/>
    <inductionLoop id="1_RWS01_MONIBAS_0101hrl0124ra_0" lane="7044073_0" pos="102.52" period="3600.00" file="logs/1_RWS01_MONIBAS_0101hrl0124ra_0.xml"/>
    <inductionLoop id="1_RWS01_MONIBAS_0101hrl0124ra_1" lane="7044073_1" pos="99.34" period="3600.00" file="logs/1_RWS01_MONIBAS_0101hrl0124ra_1.xml"/>
    <inductionLoop id="1_RWS01_MONIBAS_0101hrl0124ra_2" lane="7044073_2" pos="96.42" period="3600.00" file="logs/1_RWS01_MONIBAS_0101hrl0124ra_2.xml"/>
    <inductionLoop id="1_RWS01_MONIBAS_0101hrl0124ra_3" lane="7044073_3" pos="96.35" period="3600.00" file="logs/1_RWS01_MONIBAS_0101hrl0124ra_3.xml"/>
    <inductionLoop id="1_RWS01_MONIBAS_0101hrl0124ra_4" lane="7044073_4" pos="99.13" period="3600.00" file="logs/1_RWS01_MONIBAS_0101hrl0124ra_4.xml"/>
    <inductionLoop id="1_RWS01_MONIBAS_0101hrl0138ra_0" lane="7044421_0" pos="175.95" period="3600.00" file="logs/1_RWS01_MONIBAS_0101hrl0138ra_0.xml"/>
    <inductionLoop id="1_RWS01_MONIBAS_0101hrl0138ra_1" lane="7044421_1" pos="173.09" period="3600.00" file="logs/1_RWS01_MONIBAS_0101hrl0138ra_1.xml"/>
    <inductionLoop id="1_RWS01_MONIBAS_0101hrl0138ra_2" lane="7044421_2" pos="173.09" period="3600.00" file="logs/1_RWS01_MONIBAS_0101hrl0138ra_2.xml"/>
    <inductionLoop id="1_RWS01_MONIBAS_0101hrl0138ra_3" lane="7044421_3" pos="175.71" period="3600.00" file="logs/1_RWS01_MONIBAS_0101hrl0138ra_3.xml"/>
    <inductionLoop id="1_RWS01_MONIBAS_0101hrl0147ra_1_0" lane="7046916_0" pos="149.51" period="3600.00" file="logs/1_RWS01_MONIBAS_0101hrl0147ra_1_0.xml"/>
    <inductionLoop id="1_RWS01_MONIBAS_0101hrl0147ra_1_1" lane="7046916_1" pos="146.63" period="3600.00" file="logs/1_RWS01_MONIBAS_0101hrl0147ra_1_1.xml"/>
    <inductionLoop id="1_RWS01_MONIBAS_0101hrl0147ra_1_2" lane="7046916_2" pos="146.60" period="3600.00" file="logs/1_RWS01_MONIBAS_0101hrl0147ra_1_2.xml"/>